                                  MODFLOW-2005     
      U.S. GEOLOGICAL SURVEY MODULAR FINITE-DIFFERENCE GROUND-WATER FLOW MODEL
                            VERSION 1.11.00 8/8/2013

 LIST FILE: BASE.list
                         UNIT    2

 OPENING BASE.dis
 FILE TYPE:DIS   UNIT   11   STATUS:OLD    
 FORMAT:FORMATTED              ACCESS:SEQUENTIAL          

 OPENING BASE.bas
 FILE TYPE:BAS6   UNIT   13   STATUS:OLD    
 FORMAT:FORMATTED              ACCESS:SEQUENTIAL          

 OPENING BASE.lpf
 FILE TYPE:LPF   UNIT   15   STATUS:OLD    
 FORMAT:FORMATTED              ACCESS:SEQUENTIAL          

 OPENING BASE.oc
 FILE TYPE:OC   UNIT   14   STATUS:OLD    
 FORMAT:FORMATTED              ACCESS:SEQUENTIAL          

 OPENING BASE.pcg
 FILE TYPE:PCG   UNIT   27   STATUS:OLD    
 FORMAT:FORMATTED              ACCESS:SEQUENTIAL          

 OPENING BASE.rch
 FILE TYPE:RCH   UNIT   19   STATUS:OLD    
 FORMAT:FORMATTED              ACCESS:SEQUENTIAL          

 OPENING BASE.evt
 FILE TYPE:EVT   UNIT   22   STATUS:OLD    
 FORMAT:FORMATTED              ACCESS:SEQUENTIAL          

 OPENING BASE.wel
 FILE TYPE:WEL   UNIT   20   STATUS:OLD    
 FORMAT:FORMATTED              ACCESS:SEQUENTIAL          

 OPENING BASE.str
 FILE TYPE:STR   UNIT  118   STATUS:OLD    
 FORMAT:FORMATTED              ACCESS:SEQUENTIAL          

 OPENING BASE.cbc
 FILE TYPE:DATA(BINARY)   UNIT   53   STATUS:REPLACE
 FORMAT:BINARY                 ACCESS:SEQUENTIAL          

 OPENING BASE.hds
 FILE TYPE:DATA(BINARY)   UNIT   51   STATUS:REPLACE
 FORMAT:BINARY                 ACCESS:SEQUENTIAL          

 OPENING BASE.ddn
 FILE TYPE:DATA(BINARY)   UNIT   52   STATUS:REPLACE
 FORMAT:BINARY                 ACCESS:SEQUENTIAL          

 BAS -- BASIC PACKAGE, VERSION 7, 5/2/2005 INPUT READ FROM UNIT   13
 
 MODFLOW was compiled using mixed precision
 Precision of REAL variables:           6
 Precision of DOUBLE PRECISION variables:          15

 DISCRETIZATION INPUT DATA READ FROM UNIT   11
 # DIS package for  MODFLOW-2005, generated by Flopy.
    3 LAYERS        50 ROWS        50 COLUMNS
    1 STRESS PERIOD(S) IN SIMULATION
 MODEL TIME UNIT IS DAYS
 MODEL LENGTH UNIT IS METERS
  Confining bed flag for each layer:
   0   0   0

                     DELR =  1000.000    

                     DELC =  1000.000    



           TOP ELEVATION OF LAYER 1
 READING ON UNIT   11 WITH FORMAT: (50E15.6)           



             MODEL LAYER BOTTOM EL. FOR LAYER   1
 READING ON UNIT   11 WITH FORMAT: (50E15.6)           



             MODEL LAYER BOTTOM EL. FOR LAYER   2
 READING ON UNIT   11 WITH FORMAT: (50E15.6)           



             MODEL LAYER BOTTOM EL. FOR LAYER   3
 READING ON UNIT   11 WITH FORMAT: (50E15.6)           


 STRESS PERIOD     LENGTH       TIME STEPS     MULTIPLIER FOR DELT    SS FLAG
 ----------------------------------------------------------------------------
        1         180.0000          1                    1.000         SS

 STEADY-STATE SIMULATION



 
 # BAS6 package for  MODFLOW-2005, generated by Flopy.                           
 THE FREE FORMAT OPTION HAS BEEN SELECTED



                     BOUNDARY ARRAY FOR LAYER   1
 READING ON UNIT   13 WITH FORMAT: (50I10)             



                     BOUNDARY ARRAY FOR LAYER   2
 READING ON UNIT   13 WITH FORMAT: (50I10)             



                     BOUNDARY ARRAY FOR LAYER   3
 READING ON UNIT   13 WITH FORMAT: (50I10)             

 AQUIFER HEAD WILL BE SET TO  -999.99     AT ALL NO-FLOW NODES (IBOUND=0).



                       INITIAL HEAD FOR LAYER   1
 READING ON UNIT   13 WITH FORMAT: (50E15.6)           



                       INITIAL HEAD FOR LAYER   2
 READING ON UNIT   13 WITH FORMAT: (50E15.6)           



                       INITIAL HEAD FOR LAYER   3
 READING ON UNIT   13 WITH FORMAT: (50E15.6)           
 # OC package for  MODFLOW-2005, generated by Flopy.

 OUTPUT CONTROL IS SPECIFIED ONLY AT TIME STEPS FOR WHICH OUTPUT IS DESIRED
 COMPACT CELL-BY-CELL BUDGET FILES WILL BE WRITTEN
 AUXILIARY DATA WILL BE SAVED IN CELL-BY-CELL BUDGET FILES
 HEAD PRINT FORMAT CODE IS   0    DRAWDOWN PRINT FORMAT CODE IS   0
 HEADS WILL BE SAVED ON UNIT   51    DRAWDOWNS WILL BE SAVED ON UNIT   52

 LPF -- LAYER-PROPERTY FLOW PACKAGE, VERSION 7, 5/2/2005
         INPUT READ FROM UNIT   15
 # LPF package for  MODFLOW-2005, generated by Flopy.
 CELL-BY-CELL FLOWS WILL BE SAVED ON UNIT   53
 HEAD AT CELLS THAT CONVERT TO DRY= -1.00000E+30
 No named parameters

   LAYER FLAGS:
 LAYER       LAYTYP        LAYAVG         CHANI        LAYVKA        LAYWET
 ---------------------------------------------------------------------------
    1             1             0     0.000E+00             0             0
    2             1             0     0.000E+00             0             0
    3             1             0     0.000E+00             0             0

   INTERPRETATION OF LAYER FLAGS:
                        INTERBLOCK     HORIZONTAL    DATA IN
         LAYER TYPE   TRANSMISSIVITY   ANISOTROPY   ARRAY VKA   WETTABILITY
 LAYER      (LAYTYP)      (LAYAVG)       (CHANI)      (LAYVKA)      (LAYWET)
 ---------------------------------------------------------------------------
    1   CONVERTIBLE      HARMONIC      VARIABLE    VERTICAL K  NON-WETTABLE
    2   CONVERTIBLE      HARMONIC      VARIABLE    VERTICAL K  NON-WETTABLE
    3   CONVERTIBLE      HARMONIC      VARIABLE    VERTICAL K  NON-WETTABLE

 WETTING CAPABILITY IS NOT ACTIVE IN ANY LAYER

    HYD. COND. ALONG ROWS =  100.0000     FOR LAYER   1

   HORIZ. ANI. (COL./ROW) =  1.000000     FOR LAYER   1



                VERTICAL HYD. COND. FOR LAYER   1
 READING ON UNIT   15 WITH FORMAT: (50E15.6)           

    HYD. COND. ALONG ROWS =  100.0000     FOR LAYER   2

   HORIZ. ANI. (COL./ROW) =  1.000000     FOR LAYER   2



                VERTICAL HYD. COND. FOR LAYER   2
 READING ON UNIT   15 WITH FORMAT: (50E15.6)           

    HYD. COND. ALONG ROWS =  100.0000     FOR LAYER   3

   HORIZ. ANI. (COL./ROW) =  1.000000     FOR LAYER   3



                VERTICAL HYD. COND. FOR LAYER   3
 READING ON UNIT   15 WITH FORMAT: (50E15.6)           

 WEL -- WELL PACKAGE, VERSION 7, 5/2/2005 INPUT READ FROM UNIT   20
 # WEL package for  MODFLOW-2005, generated by Flopy.
 No named parameters
 MAXIMUM OF      2 ACTIVE WELLS AT ONE TIME


     0 Well parameters

 EVT -- EVAPOTRANSPIRATION PACKAGE, VERSION 7, 5/2/2005
         INPUT READ FROM UNIT   22
 # EVT package for  MODFLOW-2005, generated by Flopy.
 No named parameters
 OPTION 3 -- EVAPOTRANSPIRATION FROM HIGHEST ACTIVE NODE IN EACH VERTICAL COLUMN
 CELL-BY-CELL FLOWS WILL BE SAVED ON UNIT   53


     0 Evapotranspiration parameters

 RCH -- RECHARGE PACKAGE, VERSION 7, 5/2/2005 INPUT READ FROM UNIT   19
 # RCH package for  MODFLOW-2005, generated by Flopy.
 No named parameters
 OPTION 3 -- RECHARGE TO HIGHEST ACTIVE NODE IN EACH VERTICAL COLUMN


     0 Recharge parameters

 STR -- STREAM PACKAGE, VERSION 7, 5/2/2005 INPUT READ FROM UNIT  118
 # STR package for  MODFLOW-2005, generated by Flopy.
 No named parameters
 MAXIMUM OF     49 ACTIVE STREAM NODES AT ONE TIME
 NUMBER OF STREAM SEGMENTS IS      3
 NUMBER OF STREAM TRIBUTARIES IS      2
 STREAM STAGES WILL BE CALCULATED USING A CONSTANT OF 86400.0000
 CELL BUDGETS WILL BE SAVED ON UNITS   53 AND   53


     0 Stream parameters

 PCG -- CONJUGATE-GRADIENT SOLUTION PACKAGE, VERSION 7, 5/2/2005
 # PCG package for  MODFLOW-2005, generated by Flopy.
 MAXIMUM OF     50 CALLS OF SOLUTION ROUTINE
 MAXIMUM OF     30 INTERNAL ITERATIONS PER CALL TO SOLUTION ROUTINE
 MATRIX PRECONDITIONING TYPE :    1



                                    SOLUTION BY THE CONJUGATE-GRADIENT METHOD
                                   -------------------------------------------
                    MAXIMUM NUMBER OF CALLS TO PCG ROUTINE =       50
                        MAXIMUM ITERATIONS PER CALL TO PCG =       30
                               MATRIX PRECONDITIONING TYPE =        1
        RELAXATION FACTOR (ONLY USED WITH PRECOND. TYPE 1) =    0.10000E+01
 PARAMETER OF POLYNOMIAL PRECOND. = 2 (2) OR IS CALCULATED :        0
                         HEAD CHANGE CRITERION FOR CLOSURE =    0.10000E-04
                     RESIDUAL CHANGE CRITERION FOR CLOSURE =    0.10000E-04
            PCG HEAD AND RESIDUAL CHANGE PRINTOUT INTERVAL =      999
     PRINTING FROM SOLVER IS LIMITED(1) OR SUPPRESSED (>1) =        3
                            STEADY-STATE DAMPING PARAMETER =    0.10000E+01
                               TRANSIENT DAMPING PARAMETER =    0.10000E+01
1
                            STRESS PERIOD NO.    1, LENGTH =   180.0000    
                            -----------------------------------------------

                              NUMBER OF TIME STEPS =     1

                               MULTIPLIER FOR DELT =     1.000

                            INITIAL TIME STEP SIZE =   180.0000    

 WELL NO.  LAYER   ROW   COL   STRESS RATE         
 --------------------------------------------------
      1      3     21     38      -1810.    
      2      1     19     43      -6857.    

      2 WELLS



                         ET SURFACE
 READING ON UNIT   22 WITH FORMAT: (50E15.6)           



            EVAPOTRANSPIRATION RATE
 READING ON UNIT   22 WITH FORMAT: (50E15.6)           



                   EXTINCTION DEPTH
 READING ON UNIT   22 WITH FORMAT: (50E15.6)           



                           RECHARGE
 READING ON UNIT   19 WITH FORMAT: (50E15.6)           

     49 STREAM REACHES
 
 SOLVING FOR HEAD 

 OUTPUT CONTROL FOR STRESS PERIOD    1   TIME STEP    1
    SAVE HEAD FOR ALL LAYERS
    SAVE DRAWDOWN FOR ALL LAYERS
    SAVE BUDGET
    PRINT HEAD FOR ALL LAYERS
    PRINT BUDGET
 UBDSV2 SAVING "   CONSTANT HEAD" ON UNIT  53 AT TIME STEP  1, STRESS PERIOD   1
 UBDSV1 SAVING "FLOW RIGHT FACE " ON UNIT  53 AT TIME STEP  1, STRESS PERIOD   1
 UBDSV1 SAVING "FLOW FRONT FACE " ON UNIT  53 AT TIME STEP  1, STRESS PERIOD   1
 UBDSV1 SAVING "FLOW LOWER FACE " ON UNIT  53 AT TIME STEP  1, STRESS PERIOD   1
 UBDSV3 SAVING "              ET" ON UNIT  53 AT TIME STEP  1, STRESS PERIOD   1
 UBDSV4 SAVING "  STREAM LEAKAGE" ON UNIT  53 AT TIME STEP  1, STRESS PERIOD   1
 UBDSV4 SAVING "STREAM FLOW OUT " ON UNIT  53 AT TIME STEP  1, STRESS PERIOD   1
1
              HEAD IN LAYER   1 AT END OF TIME STEP   1 IN STRESS PERIOD    1
  ---------------------------------------------------------------------------

            1           2           3           4           5           6           7           8           9          10
           11          12          13          14          15          16          17          18          19          20
           21          22          23          24          25          26          27          28          29          30
           31          32          33          34          35          36          37          38          39          40
           41          42          43          44          45          46          47          48          49          50
 ........................................................................................................................
   1   -1000.      -1000.      -1000.      -1000.      -1000.      -1000.       70.60       70.59       70.58       70.57    
        70.55       70.54       70.53       70.51       70.50       70.48       70.46       70.44       70.42       70.40    
        70.38       70.36       70.34       70.31       70.29       70.27       70.25       70.23       70.21       70.19    
        70.17       70.15       70.14       70.12       70.10       70.09       70.07       70.06       70.05       70.04    
        70.03       70.02       70.01       70.01       70.01       70.00       70.00       70.00       70.00       70.00    
   2   -1000.      -1000.      -1000.      -1000.      -1000.       70.61       70.60       70.59       70.58       70.57    
        70.56       70.54       70.53       70.51       70.50       70.48       70.46       70.44       70.42       70.40    
        70.38       70.36       70.34       70.31       70.29       70.27       70.25       70.23       70.21       70.19    
        70.17       70.15       70.14       70.12       70.10       70.09       70.07       70.06       70.05       70.04    
        70.03       70.02       70.01       70.01       70.00       70.00       70.00       70.00       70.00       70.00    
   3   -1000.      -1000.      -1000.      -1000.       70.62       70.62       70.61       70.59       70.58       70.57    
        70.56       70.55       70.53       70.51       70.50       70.48       70.46       70.44       70.42       70.40    
        70.38       70.36       70.33       70.31       70.29       70.27       70.25       70.23       70.21       70.19    
        70.17       70.15       70.13       70.12       70.10       70.08       70.07       70.06       70.04       70.03    
        70.02       70.02       70.01       70.00       70.00       70.00       70.00       70.00       70.00       70.00    
   4   -1000.      -1000.      -1000.       70.63       70.63       70.62       70.61       70.59       70.58       70.57    
        70.56       70.55       70.53       70.52       70.50       70.48       70.46       70.44       70.42       70.40    
        70.38       70.36       70.33       70.31       70.29       70.27       70.25       70.23       70.21       70.19    
        70.17       70.15       70.13       70.11       70.10       70.08       70.06       70.05       70.04       70.03    
        70.02       70.01       70.00       70.00       70.00       70.00       70.00       70.00       70.00       70.00    
   5   -1000.      -1000.       70.64       70.64       70.63       70.62       70.61       70.60       70.59       70.58    
        70.56       70.55       70.53       70.52       70.50       70.48       70.46       70.44       70.42       70.40    
        70.38       70.36       70.33       70.31       70.29       70.27       70.25       70.23       70.21       70.19    
        70.17       70.15       70.13       70.11       70.09       70.07       70.06       70.04       70.03       70.02    
        70.01       70.00       70.00       69.99       69.99       69.99       69.99       69.99       70.00       70.00    
   6   -1000.       70.65       70.65       70.64       70.63       70.62       70.61       70.60       70.59       70.58    
        70.56       70.55       70.53       70.52       70.50       70.48       70.46       70.44       70.42       70.40    
        70.38       70.35       70.33       70.31       70.29       70.27       70.25       70.23       70.20       70.18    
        70.16       70.14       70.12       70.10       70.08       70.07       70.05       70.04       70.02       70.01    
        70.00       69.99       69.99       69.98       69.98       69.98       69.99       69.99       70.00       70.00    
   7    70.66       70.65       70.65       70.64       70.63       70.62       70.61       70.60       70.59       70.58    
        70.57       70.55       70.54       70.52       70.50       70.48       70.46       70.44       70.42       70.40    
        70.38       70.35       70.33       70.31       70.29       70.27       70.25       70.22       70.20       70.18    
        70.16       70.14       70.12       70.10       70.08       70.06       70.04       70.02       70.01       70.00    
        69.99       69.98       69.98       69.97       69.97       69.98       69.98       69.99       69.99       70.00    
   8    70.66       70.65       70.65       70.64       70.63       70.62       70.62       70.61       70.59       70.58    
        70.57       70.55       70.54       70.52       70.50       70.48       70.46       70.44       70.42       70.40    
        70.38       70.35       70.33       70.31       70.29       70.27       70.24       70.22       70.20       70.18    
        70.15       70.13       70.11       70.09       70.07       70.05       70.03       70.01       70.00       69.98    
        69.97       69.97       69.96       69.96       69.96       69.97       69.97       69.98       69.99       70.00    
   9    70.65       70.65       70.65       70.64       70.63       70.63       70.62       70.61       70.60       70.58    
        70.57       70.55       70.54       70.52       70.50       70.48       70.46       70.44       70.42       70.40    
        70.38       70.35       70.33       70.31       70.29       70.26       70.24       70.22       70.19       70.17    
        70.15       70.13       70.10       70.08       70.06       70.04       70.02       70.00       69.98       69.97    
        69.95       69.95       69.94       69.94       69.95       69.95       69.96       69.97       69.99       70.00    
  10    70.65       70.65       70.65       70.64       70.64       70.63       70.62       70.61       70.60       70.59    
        70.57       70.56       70.54       70.52       70.50       70.48       70.46       70.44       70.42       70.40    
        70.38       70.35       70.33       70.31       70.28       70.26       70.24       70.21       70.19       70.17    
        70.14       70.12       70.09       70.07       70.05       70.02       70.00       69.98       69.96       69.94    
        69.93       69.92       69.92       69.92       69.93       69.94       69.95       69.96       69.98       70.00    
  11    70.65       70.65       70.65       70.64       70.64       70.63       70.62       70.61       70.60       70.59    
        70.57       70.56       70.54       70.52       70.50       70.48       70.46       70.44       70.42       70.40    
        70.38       70.35       70.33       70.31       70.28       70.26       70.24       70.21       70.19       70.16    
        70.14       70.11       70.09       70.06       70.03       70.01       69.98       69.96       69.94       69.92    
        69.90       69.89       69.89       69.89       69.90       69.92       69.93       69.95       69.98       70.00    
  12    70.65       70.65       70.65       70.64       70.64       70.63       70.62       70.61       70.60       70.59    
        70.57       70.56       70.54       70.52       70.50       70.48       70.46       70.44       70.42       70.40    
        70.38       70.35       70.33       70.31       70.28       70.26       70.23       70.21       70.18       70.16    
        70.13       70.10       70.08       70.05       70.02       69.99       69.96       69.93       69.91       69.89    
        69.87       69.86       69.85       69.86       69.87       69.89       69.91       69.94       69.97       70.00    
  13    70.65       70.65       70.65       70.64       70.64       70.63       70.62       70.61       70.60       70.59    
        70.57       70.56       70.54       70.52       70.50       70.48       70.46       70.44       70.42       70.40    
        70.38       70.35       70.33       70.31       70.28       70.26       70.23       70.21       70.18       70.15    
        70.12       70.10       70.07       70.04       70.01       69.97       69.94       69.91       69.88       69.85    
        69.83       69.81       69.81       69.81       69.83       69.86       69.89       69.93       69.96       70.00    
  14    70.65       70.65       70.65       70.65       70.64       70.63       70.62       70.61       70.60       70.59    
        70.58       70.56       70.54       70.53       70.51       70.48       70.46       70.44       70.42       70.40    
        70.38       70.35       70.33       70.30       70.28       70.26       70.23       70.20       70.18       70.15    
        70.12       70.09       70.06       70.03       69.99       69.95       69.92       69.88       69.84       69.81    
        69.77       69.75       69.75       69.76       69.78       69.82       69.86       69.91       69.95       70.00    
  15    70.66       70.65       70.65       70.65       70.64       70.63       70.63       70.62       70.60       70.59    
        70.58       70.56       70.54       70.53       70.51       70.49       70.46       70.44       70.42       70.40    
        70.38       70.35       70.33       70.30       70.28       70.25       70.23       70.20       70.17       70.14    
        70.11       70.08       70.05       70.01       69.98       69.94       69.89       69.85       69.80       69.75    
        69.71       69.68       69.67       69.68       69.72       69.77       69.83       69.89       69.94       70.00    
  16    70.66       70.66       70.65       70.65       70.64       70.63       70.63       70.62       70.61       70.59    
        70.58       70.56       70.55       70.53       70.51       70.49       70.46       70.44       70.42       70.40    
        70.38       70.35       70.33       70.30       70.28       70.25       70.23       70.20       70.17       70.14    
        70.11       70.08       70.04       70.01       69.96       69.92       69.87       69.82       69.76       69.70    
        69.63       69.58       69.55       69.59       69.65       69.72       69.79       69.86       69.93       70.00    
  17    70.66       70.66       70.65       70.65       70.64       70.64       70.63       70.62       70.61       70.59    
        70.58       70.56       70.55       70.53       70.51       70.49       70.47       70.44       70.42       70.40    
        70.38       70.35       70.33       70.30       70.28       70.25       70.23       70.20       70.17       70.14    
        70.11       70.07       70.04       70.00       69.96       69.91       69.85       69.79       69.72       69.63    
        69.54       69.44       69.38       69.45       69.56       69.66       69.76       69.84       69.92       70.00    
  18    70.66       70.66       70.65       70.65       70.64       70.64       70.63       70.62       70.61       70.59    
        70.58       70.56       70.55       70.53       70.51       70.49       70.47       70.45       70.42       70.40    
        70.38       70.35       70.33       70.31       70.28       70.25       70.23       70.20       70.17       70.14    
        70.11       70.07       70.04       69.99       69.95       69.90       69.84       69.77       69.69       69.58    
        69.44       69.26       69.07       69.27       69.46       69.61       69.73       69.83       69.92       70.00    
  19    70.66       70.66       70.65       70.65       70.65       70.64       70.63       70.62       70.61       70.60    
        70.58       70.57       70.55       70.53       70.51       70.49       70.47       70.45       70.42       70.40    
        70.38       70.36       70.33       70.31       70.28       70.26       70.23       70.20       70.17       70.14    
        70.11       70.07       70.04       69.99       69.95       69.90       69.84       69.76       69.68       69.56    
        69.38       69.07       68.36       69.08       69.40       69.59       69.72       69.82       69.91       70.00    
  20    70.66       70.66       70.66       70.65       70.65       70.64       70.63       70.62       70.61       70.60    
        70.58       70.57       70.55       70.53       70.51       70.49       70.47       70.45       70.43       70.40    
        70.38       70.36       70.33       70.31       70.28       70.26       70.23       70.20       70.18       70.14    
        70.11       70.08       70.04       70.00       69.95       69.90       69.84       69.77       69.69       69.58    
        69.44       69.26       69.08       69.27       69.46       69.61       69.73       69.83       69.92       70.00    
  21    70.66       70.66       70.66       70.65       70.65       70.64       70.63       70.62       70.61       70.60    
        70.58       70.57       70.55       70.53       70.51       70.49       70.47       70.45       70.43       70.41    
        70.38       70.36       70.34       70.31       70.29       70.26       70.24       70.21       70.18       70.15    
        70.12       70.08       70.04       70.00       69.96       69.91       69.86       69.79       69.72       69.64    
        69.54       69.44       69.38       69.45       69.56       69.66       69.76       69.85       69.92       70.00    
  22    70.66       70.66       70.66       70.65       70.65       70.64       70.63       70.62       70.61       70.60    
        70.58       70.57       70.55       70.53       70.51       70.49       70.47       70.45       70.43       70.41    
        70.38       70.36       70.34       70.31       70.29       70.27       70.24       70.21       70.18       70.15    
        70.12       70.09       70.05       70.01       69.97       69.93       69.88       69.82       69.76       69.70    
        69.64       69.58       69.56       69.59       69.65       69.72       69.79       69.87       69.93       70.00    
  23    70.66       70.66       70.66       70.65       70.65       70.64       70.63       70.62       70.61       70.60    
        70.59       70.57       70.55       70.54       70.52       70.49       70.47       70.45       70.43       70.41    
        70.39       70.36       70.34       70.32       70.29       70.27       70.25       70.22       70.19       70.16    
        70.13       70.10       70.06       70.03       69.99       69.95       69.90       69.86       69.81       69.76    
        69.72       69.68       69.67       69.69       69.73       69.78       69.83       69.89       69.94       70.00    
  24    70.66       70.66       70.66       70.66       70.65       70.64       70.63       70.62       70.61       70.60    
        70.59       70.57       70.55       70.54       70.52       70.50       70.47       70.45       70.43       70.41    
        70.39       70.37       70.34       70.32       70.30       70.28       70.25       70.23       70.20       70.17    
        70.14       70.11       70.07       70.04       70.00       69.97       69.93       69.89       69.85       69.81    
        69.78       69.76       69.75       69.76       69.79       69.82       69.86       69.91       69.95       70.00    
  25    70.66       70.66       70.66       70.66       70.65       70.64       70.64       70.63       70.61       70.60    
        70.59       70.57       70.56       70.54       70.52       70.50       70.48       70.46       70.43       70.41    
        70.39       70.37       70.35       70.33       70.30       70.28       70.26       70.24       70.21       70.18    
        70.15       70.12       70.09       70.05       70.02       69.99       69.95       69.92       69.89       69.86    
        69.83       69.82       69.81       69.82       69.84       69.86       69.89       69.93       69.96       70.00    
  26    70.67       70.66       70.66       70.66       70.65       70.64       70.64       70.63       70.62       70.60    
        70.59       70.57       70.56       70.54       70.52       70.50       70.48       70.46       70.44       70.41    
        70.39       70.37       70.35       70.33       70.31       70.29       70.27       70.25       70.22       70.19    
        70.16       70.13       70.10       70.07       70.04       70.01       69.98       69.95       69.92       69.90    
        69.88       69.87       69.86       69.86       69.88       69.89       69.92       69.94       69.97       70.00    
  27    70.67       70.66       70.66       70.66       70.65       70.65       70.64       70.63       70.62       70.60    
        70.59       70.58       70.56       70.54       70.52       70.50       70.48       70.46       70.44       70.42    
        70.40       70.37       70.35       70.33       70.31       70.29       70.27       70.25       70.22       70.20    
        70.17       70.14       70.11       70.08       70.05       70.03       70.00       69.97       69.95       69.93    
        69.92       69.90       69.90       69.90       69.91       69.92       69.94       69.96       69.98       70.00    
  28    70.67       70.67       70.66       70.66       70.65       70.65       70.64       70.63       70.62       70.61    
        70.59       70.58       70.56       70.54       70.52       70.50       70.48       70.46       70.44       70.42    
        70.40       70.38       70.36       70.33       70.31       70.29       70.27       70.25       70.23       70.20    
        70.17       70.15       70.12       70.09       70.07       70.04       70.02       70.00       69.98       69.96    
        69.95       69.94       69.93       69.93       69.93       69.94       69.95       69.97       69.98       70.00    
  29    70.67       70.67       70.66       70.66       70.65       70.65       70.64       70.63       70.62       70.61    
        70.59       70.58       70.56       70.54       70.52       70.50       70.48       70.46       70.44       70.42    
        70.40       70.38       70.36       70.34       70.32       70.30       70.27       70.25       70.23       70.20    
        70.18       70.16       70.13       70.11       70.08       70.06       70.04       70.02       70.00       69.98    
        69.97       69.96       69.96       69.95       69.96       69.96       69.97       69.98       69.99       70.00    
  30    70.67       70.67       70.66       70.66       70.65       70.65       70.64       70.63       70.62       70.61    
        70.59       70.58       70.56       70.54       70.53       70.50       70.48       70.46       70.44       70.42    
        70.40       70.38       70.36       70.34       70.32       70.30       70.28       70.26       70.23       70.21    
        70.19       70.16       70.14       70.12       70.10       70.08       70.06       70.04       70.02       70.00    
        69.99       69.98       69.98       69.97       69.97       69.98       69.98       69.99       69.99       70.00    
  31    70.67       70.67       70.67       70.66       70.66       70.65       70.64       70.63       70.62       70.61    
        70.59       70.58       70.56       70.55       70.53       70.51       70.49       70.47       70.44       70.42    
        70.40       70.38       70.36       70.34       70.32       70.30       70.28       70.26       70.24       70.22    
        70.19       70.17       70.15       70.13       70.11       70.09       70.07       70.05       70.04       70.02    
        70.01       70.00       69.99       69.99       69.99       69.99       69.99       69.99       70.00       70.00    
  32    70.67       70.67       70.67       70.66       70.66       70.65       70.64       70.63       70.62       70.61    
        70.60       70.58       70.56       70.55       70.53       70.51       70.49       70.47       70.45       70.43    
        70.41       70.39       70.37       70.35       70.32       70.30       70.28       70.26       70.24       70.22    
        70.20       70.18       70.16       70.14       70.12       70.10       70.08       70.07       70.05       70.04    
        70.03       70.02       70.01       70.00       70.00       70.00       70.00       70.00       70.00       70.00    
  33    70.67       70.67       70.67       70.66       70.66       70.65       70.64       70.63       70.62       70.61    
        70.60       70.58       70.57       70.55       70.53       70.51       70.49       70.47       70.45       70.43    
        70.41       70.39       70.37       70.35       70.33       70.31       70.29       70.27       70.25       70.23    
        70.21       70.19       70.17       70.15       70.13       70.11       70.09       70.08       70.06       70.05    
        70.04       70.03       70.02       70.01       70.01       70.01       70.00       70.00       70.00       70.00    
  34    70.67       70.67       70.67       70.66       70.66       70.65       70.64       70.63       70.62       70.61    
        70.60       70.58       70.57       70.55       70.53       70.51       70.49       70.47       70.45       70.43    
        70.41       70.39       70.37       70.35       70.33       70.31       70.29       70.27       70.25       70.23    
        70.21       70.19       70.17       70.16       70.14       70.12       70.10       70.09       70.08       70.06    
        70.05       70.04       70.03       70.02       70.02       70.01       70.01       70.01       70.00       70.00    
  35    70.67       70.67       70.67       70.66       70.66       70.65       70.64       70.63       70.62       70.61    
        70.60       70.58       70.57       70.55       70.53       70.51       70.49       70.47       70.45       70.43    
        70.41       70.39       70.37       70.35       70.33       70.31       70.29       70.28       70.26       70.24    
        70.22       70.20       70.18       70.16       70.15       70.13       70.11       70.10       70.08       70.07    
        70.06       70.05       70.04       70.03       70.02       70.02       70.01       70.01       70.00       70.00    
  36    70.67       70.67       70.67       70.66       70.66       70.65       70.64       70.63       70.62       70.61    
        70.60       70.58       70.57       70.55       70.53       70.51       70.49       70.47       70.45       70.43    
        70.41       70.39       70.37       70.36       70.34       70.32       70.30       70.28       70.26       70.24    
        70.22       70.20       70.19       70.17       70.15       70.14       70.12       70.11       70.09       70.08    
        70.07       70.06       70.05       70.04       70.03       70.02       70.02       70.01       70.01       70.00    
  37    70.67       70.67       70.67       70.66       70.66       70.65       70.64       70.63       70.62       70.61    
        70.60       70.58       70.57       70.55       70.53       70.51       70.49       70.47       70.45       70.44    
        70.42       70.40       70.38       70.36       70.34       70.32       70.30       70.28       70.26       70.25    
        70.23       70.21       70.19       70.18       70.16       70.14       70.13       70.11       70.10       70.09    
        70.08       70.06       70.05       70.04       70.04       70.03       70.02       70.01       70.01       70.00    
  38    70.67       70.67       70.67       70.66       70.66       70.65       70.64       70.63       70.62       70.61    
        70.60       70.58       70.57       70.55       70.53       70.51       70.49       70.48       70.46       70.44    
        70.42       70.40       70.38       70.36       70.34       70.32       70.30       70.29       70.27       70.25    
        70.23       70.21       70.20       70.18       70.16       70.15       70.13       70.12       70.11       70.09    
        70.08       70.07       70.06       70.05       70.04       70.03       70.02       70.02       70.01       70.00    
  39    70.67       70.67       70.67       70.66       70.66       70.65       70.64       70.63       70.62       70.61    
        70.60       70.58       70.57       70.55       70.53       70.51       70.50       70.48       70.46       70.44    
        70.42       70.40       70.38       70.36       70.34       70.33       70.31       70.29       70.27       70.25    
        70.24       70.22       70.20       70.19       70.17       70.15       70.14       70.13       70.11       70.10    
        70.09       70.08       70.06       70.05       70.04       70.03       70.03       70.02       70.01       70.00    
  40    70.67       70.67       70.67       70.66       70.66       70.65       70.64       70.63       70.62       70.61    
        70.60       70.58       70.57       70.55       70.53       70.52       70.50       70.48       70.46       70.44    
        70.42       70.40       70.38       70.36       70.35       70.33       70.31       70.29       70.27       70.26    
        70.24       70.22       70.21       70.19       70.17       70.16       70.14       70.13       70.12       70.10    
        70.09       70.08       70.07       70.06       70.05       70.04       70.03       70.02       70.01       70.00    
  41    70.67       70.67       70.67       70.66       70.66       70.65       70.64       70.63       70.62       70.61    
        70.60       70.58       70.57       70.55       70.53       70.52       70.50       70.48       70.46       70.44    
        70.42       70.40       70.38       70.37       70.35       70.33       70.31       70.29       70.28       70.26    
        70.24       70.23       70.21       70.19       70.18       70.16       70.15       70.13       70.12       70.11    
        70.10       70.08       70.07       70.06       70.05       70.04       70.03       70.02       70.01       70.00    
  42    70.68       70.67       70.67       70.66       70.66       70.65       70.64       70.63       70.62       70.61    
        70.60       70.58       70.57       70.55       70.53       70.52       70.50       70.48       70.46       70.44    
        70.42       70.40       70.39       70.37       70.35       70.33       70.31       70.30       70.28       70.26    
        70.25       70.23       70.21       70.20       70.18       70.17       70.15       70.14       70.12       70.11    
        70.10       70.09       70.07       70.06       70.05       70.04       70.03       70.02       70.01       70.00    
  43    70.68       70.68       70.67       70.66       70.66       70.65       70.64       70.63       70.62       70.61    
        70.60       70.58       70.57       70.55       70.54       70.52       70.50       70.48       70.46       70.44    
        70.42       70.41       70.39       70.37       70.35       70.33       70.32       70.30       70.28       70.26    
        70.25       70.23       70.22       70.20       70.18       70.17       70.16       70.14       70.13       70.11    
        70.10       70.09       70.08       70.07       70.05       70.04       70.03       70.02       70.01       70.00    
  44    70.68       70.68       70.67       70.66       70.65       70.65       70.64       70.63       70.62       70.61    
        70.60       70.58       70.57       70.55       70.54       70.52       70.50       70.48       70.46       70.44    
        70.42       70.41       70.39       70.37       70.35       70.33       70.32       70.30       70.28       70.27    
        70.25       70.23       70.22       70.20       70.19       70.17       70.16       70.14       70.13       70.12    
        70.10       70.09       70.08       70.07       70.06       70.04       70.03       70.02       70.01       70.00    
  45   -1000.       70.68       70.67       70.66       70.66       70.65       70.64       70.63       70.62       70.61    
        70.60       70.58       70.57       70.55       70.53       70.52       70.50       70.48       70.46       70.44    
        70.42       70.41       70.39       70.37       70.35       70.34       70.32       70.30       70.28       70.27    
        70.25       70.24       70.22       70.20       70.19       70.17       70.16       70.15       70.13       70.12    
        70.11       70.09       70.08       70.07       70.06       70.05       70.03       70.02       70.01       70.00    
  46   -1000.      -1000.       70.67       70.66       70.66       70.65       70.64       70.63       70.62       70.61    
        70.59       70.58       70.57       70.55       70.53       70.52       70.50       70.48       70.46       70.44    
        70.43       70.41       70.39       70.37       70.35       70.34       70.32       70.30       70.29       70.27    
        70.25       70.24       70.22       70.21       70.19       70.18       70.16       70.15       70.13       70.12    
        70.11       70.09       70.08       70.07       70.06       70.05       70.03       70.02       70.01       70.00    
  47   -1000.      -1000.      -1000.       70.66       70.65       70.65       70.64       70.62       70.61       70.60    
        70.59       70.58       70.57       70.55       70.53       70.52       70.50       70.48       70.46       70.44    
        70.43       70.41       70.39       70.37       70.36       70.34       70.32       70.30       70.29       70.27    
        70.25       70.24       70.22       70.21       70.19       70.18       70.16       70.15       70.14       70.12    
        70.11       70.10       70.08       70.07       70.06       70.05       70.03       70.02       70.01       70.00    
  48   -1000.      -1000.      -1000.      -1000.       70.65       70.64       70.64       70.62       70.61       70.60    
        70.59       70.58       70.57       70.55       70.53       70.52       70.50       70.48       70.46       70.44    
        70.43       70.41       70.39       70.37       70.36       70.34       70.32       70.30       70.29       70.27    
        70.26       70.24       70.22       70.21       70.19       70.18       70.16       70.15       70.14       70.12    
        70.11       70.10       70.08       70.07       70.06       70.05       70.04       70.02       70.01       70.00    
  49   -1000.      -1000.      -1000.      -1000.      -1000.       70.64       70.63       70.62       70.61       70.60    
        70.59       70.58       70.56       70.55       70.53       70.52       70.50       70.48       70.46       70.44    
        70.43       70.41       70.39       70.37       70.36       70.34       70.32       70.30       70.29       70.27    
        70.26       70.24       70.22       70.21       70.19       70.18       70.16       70.15       70.14       70.12    
        70.11       70.10       70.08       70.07       70.06       70.05       70.04       70.02       70.01       70.00    
  50   -1000.      -1000.      -1000.      -1000.      -1000.      -1000.       70.63       70.62       70.61       70.60    
        70.59       70.58       70.56       70.55       70.53       70.52       70.50       70.48       70.46       70.44    
        70.43       70.41       70.39       70.37       70.36       70.34       70.32       70.31       70.29       70.27    
        70.26       70.24       70.22       70.21       70.19       70.18       70.17       70.15       70.14       70.12    
        70.11       70.10       70.08       70.07       70.06       70.05       70.04       70.02       70.01       70.00    
1
              HEAD IN LAYER   2 AT END OF TIME STEP   1 IN STRESS PERIOD    1
  ---------------------------------------------------------------------------

            1           2           3           4           5           6           7           8           9          10
           11          12          13          14          15          16          17          18          19          20
           21          22          23          24          25          26          27          28          29          30
           31          32          33          34          35          36          37          38          39          40
           41          42          43          44          45          46          47          48          49          50
 ........................................................................................................................
   1   -1000.      -1000.      -1000.      -1000.      -1000.      -1000.      -1000.      -1000.       70.58       70.57    
        70.55       70.54       70.53       70.51       70.50       70.48       70.46       70.44       70.42       70.40    
        70.38       70.36       70.34       70.32       70.30       70.28       70.26       70.24       70.22       70.20    
        70.19       70.17       70.15       70.14       70.12       70.11       70.09       70.08       70.07       70.06    
        70.05       70.04       70.03       70.02       70.02       70.01       70.01       70.01       70.00       70.00    
   2   -1000.      -1000.      -1000.      -1000.      -1000.      -1000.      -1000.       70.59       70.58       70.57    
        70.56       70.54       70.53       70.51       70.50       70.48       70.46       70.44       70.42       70.40    
        70.38       70.36       70.34       70.32       70.30       70.28       70.26       70.24       70.22       70.20    
        70.19       70.17       70.15       70.13       70.12       70.10       70.09       70.08       70.07       70.06    
        70.05       70.04       70.03       70.02       70.02       70.01       70.01       70.01       70.00       70.00    
   3   -1000.      -1000.      -1000.      -1000.      -1000.      -1000.       70.61       70.59       70.58       70.57    
        70.56       70.55       70.53       70.51       70.50       70.48       70.46       70.44       70.42       70.40    
        70.38       70.36       70.34       70.32       70.30       70.28       70.26       70.24       70.22       70.20    
        70.18       70.17       70.15       70.13       70.12       70.10       70.09       70.08       70.06       70.05    
        70.04       70.04       70.03       70.02       70.02       70.01       70.01       70.01       70.00       70.00    
   4   -1000.      -1000.      -1000.      -1000.      -1000.       70.62       70.61       70.59       70.58       70.57    
        70.56       70.55       70.53       70.52       70.50       70.48       70.46       70.44       70.42       70.40    
        70.38       70.36       70.34       70.32       70.30       70.28       70.26       70.24       70.22       70.20    
        70.18       70.16       70.15       70.13       70.12       70.10       70.09       70.07       70.06       70.05    
        70.04       70.03       70.02       70.02       70.01       70.01       70.01       70.00       70.00       70.00    
   5   -1000.      -1000.      -1000.      -1000.       70.63       70.62       70.61       70.60       70.59       70.58    
        70.56       70.55       70.53       70.52       70.50       70.48       70.46       70.44       70.42       70.40    
        70.38       70.36       70.34       70.32       70.30       70.28       70.26       70.24       70.22       70.20    
        70.18       70.16       70.14       70.13       70.11       70.10       70.08       70.07       70.06       70.05    
        70.04       70.03       70.02       70.01       70.01       70.01       70.00       70.00       70.00       70.00    
   6   -1000.      -1000.      -1000.       70.64       70.63       70.62       70.61       70.60       70.59       70.58    
        70.56       70.55       70.53       70.52       70.50       70.48       70.46       70.44       70.42       70.40    
        70.38       70.36       70.34       70.32       70.30       70.28       70.26       70.24       70.22       70.20    
        70.18       70.16       70.14       70.12       70.11       70.09       70.08       70.06       70.05       70.04    
        70.03       70.02       70.01       70.01       70.01       70.00       70.00       70.00       70.00       70.00    
   7   -1000.      -1000.       70.65       70.64       70.63       70.62       70.61       70.60       70.59       70.58    
        70.57       70.55       70.54       70.52       70.50       70.48       70.46       70.44       70.42       70.40    
        70.38       70.36       70.34       70.32       70.30       70.27       70.25       70.23       70.21       70.19    
        70.17       70.16       70.14       70.12       70.10       70.09       70.07       70.06       70.04       70.03    
        70.02       70.01       70.01       70.00       70.00       70.00       70.00       70.00       70.00       70.00    
   8   -1000.       70.65       70.65       70.64       70.63       70.62       70.62       70.61       70.59       70.58    
        70.57       70.55       70.54       70.52       70.50       70.48       70.46       70.44       70.42       70.40    
        70.38       70.36       70.34       70.31       70.29       70.27       70.25       70.23       70.21       70.19    
        70.17       70.15       70.13       70.11       70.10       70.08       70.06       70.05       70.03       70.02    
        70.01       70.00       70.00       69.99       69.99       69.99       69.99       69.99       70.00       70.00    
   9    70.65       70.65       70.65       70.64       70.63       70.63       70.62       70.61       70.60       70.58    
        70.57       70.55       70.54       70.52       70.50       70.48       70.46       70.44       70.42       70.40    
        70.38       70.36       70.34       70.31       70.29       70.27       70.25       70.23       70.21       70.19    
        70.17       70.15       70.13       70.11       70.09       70.07       70.05       70.04       70.02       70.01    
        70.00       69.99       69.99       69.98       69.98       69.98       69.99       69.99       69.99       70.00    
  10    70.65       70.65       70.65       70.64       70.64       70.63       70.62       70.61       70.60       70.59    
        70.57       70.56       70.54       70.52       70.50       70.48       70.46       70.44       70.42       70.40    
        70.38       70.36       70.33       70.31       70.29       70.27       70.25       70.23       70.21       70.18    
        70.16       70.14       70.12       70.10       70.08       70.06       70.04       70.03       70.01       70.00    
        69.99       69.98       69.97       69.97       69.97       69.98       69.98       69.99       69.99       70.00    
  11    70.65       70.65       70.65       70.64       70.64       70.63       70.62       70.61       70.60       70.59    
        70.57       70.56       70.54       70.52       70.50       70.48       70.46       70.44       70.42       70.40    
        70.38       70.36       70.33       70.31       70.29       70.27       70.25       70.22       70.20       70.18    
        70.16       70.14       70.11       70.09       70.07       70.05       70.03       70.01       70.00       69.98    
        69.97       69.96       69.96       69.96       69.96       69.96       69.97       69.98       69.99       70.00    
  12    70.65       70.65       70.65       70.64       70.64       70.63       70.62       70.61       70.60       70.59    
        70.57       70.56       70.54       70.52       70.50       70.48       70.46       70.44       70.42       70.40    
        70.38       70.36       70.33       70.31       70.29       70.27       70.24       70.22       70.20       70.18    
        70.15       70.13       70.11       70.09       70.06       70.04       70.02       70.00       69.98       69.97    
        69.95       69.95       69.94       69.94       69.94       69.95       69.96       69.97       69.99       70.00    
  13    70.65       70.65       70.65       70.64       70.64       70.63       70.62       70.61       70.60       70.59    
        70.57       70.56       70.54       70.52       70.50       70.48       70.46       70.44       70.42       70.40    
        70.38       70.36       70.33       70.31       70.29       70.27       70.24       70.22       70.20       70.17    
        70.15       70.13       70.10       70.08       70.05       70.03       70.01       69.99       69.97       69.95    
        69.93       69.92       69.92       69.92       69.93       69.94       69.95       69.97       69.98       70.00    
  14    70.65       70.65       70.65       70.65       70.64       70.63       70.62       70.61       70.60       70.59    
        70.58       70.56       70.54       70.53       70.51       70.48       70.46       70.44       70.42       70.40    
        70.38       70.36       70.33       70.31       70.29       70.26       70.24       70.22       70.19       70.17    
        70.14       70.12       70.09       70.07       70.04       70.02       69.99       69.97       69.95       69.93    
        69.91       69.90       69.90       69.90       69.91       69.92       69.94       69.96       69.98       70.00    
  15    70.66       70.65       70.65       70.65       70.64       70.63       70.63       70.62       70.60       70.59    
        70.58       70.56       70.54       70.53       70.51       70.49       70.46       70.44       70.42       70.40    
        70.38       70.36       70.33       70.31       70.29       70.26       70.24       70.22       70.19       70.17    
        70.14       70.11       70.09       70.06       70.03       70.01       69.98       69.95       69.93       69.90    
        69.89       69.87       69.87       69.87       69.88       69.90       69.92       69.95       69.97       70.00    
  16    70.66       70.66       70.65       70.65       70.64       70.63       70.63       70.62       70.61       70.59    
        70.58       70.56       70.55       70.53       70.51       70.49       70.46       70.44       70.42       70.40    
        70.38       70.36       70.33       70.31       70.29       70.26       70.24       70.21       70.19       70.16    
        70.14       70.11       70.08       70.05       70.02       69.99       69.97       69.94       69.91       69.88    
        69.86       69.84       69.84       69.84       69.86       69.88       69.91       69.94       69.97       70.00    
  17    70.66       70.66       70.65       70.65       70.64       70.64       70.63       70.62       70.61       70.59    
        70.58       70.56       70.55       70.53       70.51       70.49       70.47       70.44       70.42       70.40    
        70.38       70.36       70.33       70.31       70.29       70.26       70.24       70.21       70.19       70.16    
        70.14       70.11       70.08       70.05       70.02       69.99       69.95       69.92       69.89       69.86    
        69.83       69.81       69.80       69.81       69.84       69.87       69.90       69.93       69.97       70.00    
  18    70.66       70.66       70.65       70.65       70.64       70.64       70.63       70.62       70.61       70.59    
        70.58       70.56       70.55       70.53       70.51       70.49       70.47       70.45       70.42       70.40    
        70.38       70.36       70.33       70.31       70.29       70.26       70.24       70.21       70.19       70.16    
        70.13       70.10       70.07       70.04       70.01       69.98       69.94       69.91       69.88       69.84    
        69.81       69.78       69.77       69.79       69.82       69.85       69.89       69.93       69.96       70.00    
  19    70.66       70.66       70.65       70.65       70.65       70.64       70.63       70.62       70.61       70.60    
        70.58       70.57       70.55       70.53       70.51       70.49       70.47       70.45       70.42       70.40    
        70.38       70.36       70.34       70.31       70.29       70.26       70.24       70.21       70.19       70.16    
        70.13       70.10       70.07       70.04       70.01       69.97       69.94       69.90       69.87       69.83    
        69.80       69.77       69.75       69.77       69.81       69.85       69.89       69.93       69.96       70.00    
  20    70.66       70.66       70.66       70.65       70.65       70.64       70.63       70.62       70.61       70.60    
        70.58       70.57       70.55       70.53       70.51       70.49       70.47       70.45       70.43       70.40    
        70.38       70.36       70.34       70.31       70.29       70.27       70.24       70.22       70.19       70.16    
        70.13       70.11       70.07       70.04       70.01       69.97       69.94       69.90       69.87       69.84    
        69.81       69.78       69.77       69.79       69.82       69.85       69.89       69.93       69.96       70.00    
  21    70.66       70.66       70.66       70.65       70.65       70.64       70.63       70.62       70.61       70.60    
        70.58       70.57       70.55       70.53       70.51       70.49       70.47       70.45       70.43       70.41    
        70.38       70.36       70.34       70.32       70.29       70.27       70.24       70.22       70.19       70.17    
        70.14       70.11       70.08       70.05       70.01       69.98       69.94       69.91       69.88       69.85    
        69.82       69.81       69.80       69.81       69.84       69.87       69.90       69.93       69.97       70.00    
  22    70.66       70.66       70.66       70.65       70.65       70.64       70.63       70.62       70.61       70.60    
        70.58       70.57       70.55       70.53       70.51       70.49       70.47       70.45       70.43       70.41    
        70.39       70.36       70.34       70.32       70.29       70.27       70.25       70.22       70.20       70.17    
        70.14       70.11       70.08       70.05       70.02       69.99       69.95       69.92       69.89       69.87    
        69.85       69.84       69.83       69.84       69.86       69.88       69.91       69.94       69.97       70.00    
  23    70.66       70.66       70.66       70.65       70.65       70.64       70.63       70.62       70.61       70.60    
        70.59       70.57       70.55       70.54       70.52       70.49       70.47       70.45       70.43       70.41    
        70.39       70.37       70.34       70.32       70.30       70.27       70.25       70.23       70.20       70.17    
        70.15       70.12       70.09       70.06       70.03       70.00       69.97       69.94       69.92       69.89    
        69.88       69.87       69.86       69.87       69.88       69.90       69.92       69.95       69.97       70.00    
  24    70.66       70.66       70.66       70.66       70.65       70.64       70.63       70.62       70.61       70.60    
        70.59       70.57       70.55       70.54       70.52       70.50       70.47       70.45       70.43       70.41    
        70.39       70.37       70.35       70.32       70.30       70.28       70.25       70.23       70.21       70.18    
        70.15       70.13       70.10       70.07       70.04       70.01       69.99       69.96       69.94       69.92    
        69.91       69.90       69.89       69.90       69.91       69.92       69.94       69.96       69.98       70.00    
  25    70.66       70.66       70.66       70.66       70.65       70.64       70.64       70.63       70.61       70.60    
        70.59       70.57       70.56       70.54       70.52       70.50       70.48       70.46       70.43       70.41    
        70.39       70.37       70.35       70.33       70.30       70.28       70.26       70.24       70.21       70.19    
        70.16       70.13       70.11       70.08       70.05       70.03       70.00       69.98       69.96       69.94    
        69.93       69.92       69.92       69.92       69.93       69.94       69.95       69.97       69.98       70.00    
  26    70.67       70.66       70.66       70.66       70.65       70.64       70.64       70.63       70.62       70.60    
        70.59       70.57       70.56       70.54       70.52       70.50       70.48       70.46       70.44       70.41    
        70.39       70.37       70.35       70.33       70.31       70.29       70.26       70.24       70.22       70.19    
        70.17       70.14       70.12       70.09       70.07       70.04       70.02       70.00       69.98       69.97    
        69.95       69.95       69.94       69.94       69.95       69.95       69.96       69.97       69.99       70.00    
  27    70.67       70.66       70.66       70.66       70.65       70.65       70.64       70.63       70.62       70.60    
        70.59       70.58       70.56       70.54       70.52       70.50       70.48       70.46       70.44       70.42    
        70.40       70.37       70.35       70.33       70.31       70.29       70.27       70.24       70.22       70.20    
        70.17       70.15       70.13       70.10       70.08       70.06       70.04       70.02       70.00       69.99    
        69.97       69.97       69.96       69.96       69.96       69.97       69.97       69.98       69.99       70.00    
  28    70.67       70.67       70.66       70.66       70.65       70.65       70.64       70.63       70.62       70.61    
        70.59       70.58       70.56       70.54       70.52       70.50       70.48       70.46       70.44       70.42    
        70.40       70.38       70.36       70.33       70.31       70.29       70.27       70.25       70.23       70.20    
        70.18       70.16       70.14       70.11       70.09       70.07       70.05       70.03       70.02       70.00    
        69.99       69.98       69.98       69.98       69.98       69.98       69.98       69.99       69.99       70.00    
  29    70.67       70.67       70.66       70.66       70.65       70.65       70.64       70.63       70.62       70.61    
        70.59       70.58       70.56       70.54       70.52       70.50       70.48       70.46       70.44       70.42    
        70.40       70.38       70.36       70.34       70.32       70.30       70.27       70.25       70.23       70.21    
        70.19       70.17       70.14       70.12       70.10       70.08       70.07       70.05       70.03       70.02    
        70.01       70.00       69.99       69.99       69.99       69.99       69.99       69.99       70.00       70.00    
  30    70.67       70.67       70.66       70.66       70.65       70.65       70.64       70.63       70.62       70.61    
        70.59       70.58       70.56       70.54       70.53       70.50       70.48       70.46       70.44       70.42    
        70.40       70.38       70.36       70.34       70.32       70.30       70.28       70.26       70.24       70.22    
        70.19       70.17       70.15       70.13       70.11       70.10       70.08       70.06       70.05       70.03    
        70.02       70.01       70.01       70.00       70.00       70.00       70.00       70.00       70.00       70.00    
  31    70.67       70.67       70.67       70.66       70.66       70.65       70.64       70.63       70.62       70.61    
        70.59       70.58       70.56       70.55       70.53       70.51       70.49       70.47       70.44       70.42    
        70.40       70.38       70.36       70.34       70.32       70.30       70.28       70.26       70.24       70.22    
        70.20       70.18       70.16       70.14       70.12       70.11       70.09       70.07       70.06       70.05    
        70.04       70.03       70.02       70.01       70.01       70.00       70.00       70.00       70.00       70.00    
  32    70.67       70.67       70.67       70.66       70.66       70.65       70.64       70.63       70.62       70.61    
        70.60       70.58       70.56       70.55       70.53       70.51       70.49       70.47       70.45       70.43    
        70.41       70.39       70.37       70.35       70.33       70.31       70.29       70.27       70.25       70.23    
        70.21       70.19       70.17       70.15       70.13       70.12       70.10       70.08       70.07       70.06    
        70.05       70.04       70.03       70.02       70.02       70.01       70.01       70.00       70.00       70.00    
  33    70.67       70.67       70.67       70.66       70.66       70.65       70.64       70.63       70.62       70.61    
        70.60       70.58       70.57       70.55       70.53       70.51       70.49       70.47       70.45       70.43    
        70.41       70.39       70.37       70.35       70.33       70.31       70.29       70.27       70.25       70.23    
        70.21       70.19       70.18       70.16       70.14       70.12       70.11       70.09       70.08       70.07    
        70.06       70.05       70.04       70.03       70.02       70.02       70.01       70.01       70.00       70.00    
  34    70.67       70.67       70.67       70.66       70.66       70.65       70.64       70.63       70.62       70.61    
        70.60       70.58       70.57       70.55       70.53       70.51       70.49       70.47       70.45       70.43    
        70.41       70.39       70.37       70.35       70.33       70.31       70.29       70.27       70.26       70.24    
        70.22       70.20       70.18       70.16       70.15       70.13       70.12       70.10       70.09       70.08    
        70.06       70.05       70.04       70.04       70.03       70.02       70.02       70.01       70.01       70.00    
  35    70.67       70.67       70.67       70.66       70.66       70.65       70.64       70.63       70.62       70.61    
        70.60       70.58       70.57       70.55       70.53       70.51       70.49       70.47       70.45       70.43    
        70.41       70.39       70.37       70.35       70.33       70.32       70.30       70.28       70.26       70.24    
        70.22       70.20       70.19       70.17       70.15       70.14       70.12       70.11       70.10       70.08    
        70.07       70.06       70.05       70.04       70.03       70.03       70.02       70.01       70.01       70.00    
  36    70.67       70.67       70.67       70.66       70.66       70.65       70.64       70.63       70.62       70.61    
        70.60       70.58       70.57       70.55       70.53       70.51       70.49       70.47       70.45       70.43    
        70.41       70.39       70.38       70.36       70.34       70.32       70.30       70.28       70.26       70.25    
        70.23       70.21       70.19       70.18       70.16       70.14       70.13       70.12       70.10       70.09    
        70.08       70.07       70.06       70.05       70.04       70.03       70.02       70.01       70.01       70.00    
  37    70.67       70.67       70.67       70.66       70.66       70.65       70.64       70.63       70.62       70.61    
        70.60       70.58       70.57       70.55       70.53       70.51       70.49       70.47       70.45       70.44    
        70.42       70.40       70.38       70.36       70.34       70.32       70.30       70.28       70.27       70.25    
        70.23       70.21       70.20       70.18       70.17       70.15       70.14       70.12       70.11       70.10    
        70.08       70.07       70.06       70.05       70.04       70.03       70.02       70.02       70.01       70.00    
  38    70.67       70.67       70.67       70.66       70.66       70.65       70.64       70.63       70.62       70.61    
        70.60       70.58       70.57       70.55       70.53       70.51       70.49       70.48       70.46       70.44    
        70.42       70.40       70.38       70.36       70.34       70.32       70.31       70.29       70.27       70.25    
        70.24       70.22       70.20       70.19       70.17       70.16       70.14       70.13       70.11       70.10    
        70.09       70.08       70.07       70.06       70.05       70.04       70.03       70.02       70.01       70.00    
  39    70.67       70.67       70.67       70.66       70.66       70.65       70.64       70.63       70.62       70.61    
        70.60       70.58       70.57       70.55       70.53       70.51       70.50       70.48       70.46       70.44    
        70.42       70.40       70.38       70.36       70.34       70.33       70.31       70.29       70.27       70.26    
        70.24       70.22       70.21       70.19       70.17       70.16       70.15       70.13       70.12       70.10    
        70.09       70.08       70.07       70.06       70.05       70.04       70.03       70.02       70.01       70.00    
  40    70.67       70.67       70.67       70.66       70.66       70.65       70.64       70.63       70.62       70.61    
        70.60       70.58       70.57       70.55       70.53       70.52       70.50       70.48       70.46       70.44    
        70.42       70.40       70.38       70.36       70.35       70.33       70.31       70.29       70.28       70.26    
        70.24       70.23       70.21       70.19       70.18       70.16       70.15       70.14       70.12       70.11    
        70.10       70.08       70.07       70.06       70.05       70.04       70.03       70.02       70.01       70.00    
  41    70.67       70.67       70.67       70.66       70.66       70.65       70.64       70.63       70.62       70.61    
        70.60       70.58       70.57       70.55       70.53       70.52       70.50       70.48       70.46       70.44    
        70.42       70.40       70.38       70.37       70.35       70.33       70.31       70.30       70.28       70.26    
        70.25       70.23       70.21       70.20       70.18       70.17       70.15       70.14       70.12       70.11    
        70.10       70.09       70.08       70.06       70.05       70.04       70.03       70.02       70.01       70.00    
  42    70.68       70.67       70.67       70.66       70.66       70.65       70.64       70.63       70.62       70.61    
        70.60       70.58       70.57       70.55       70.53       70.52       70.50       70.48       70.46       70.44    
        70.42       70.40       70.39       70.37       70.35       70.33       70.32       70.30       70.28       70.26    
        70.25       70.23       70.22       70.20       70.18       70.17       70.16       70.14       70.13       70.11    
        70.10       70.09       70.08       70.07       70.05       70.04       70.03       70.02       70.01       70.00    
  43   -1000.       70.68       70.67       70.66       70.66       70.65       70.64       70.63       70.62       70.61    
        70.60       70.58       70.57       70.55       70.54       70.52       70.50       70.48       70.46       70.44    
        70.42       70.41       70.39       70.37       70.35       70.33       70.32       70.30       70.28       70.27    
        70.25       70.23       70.22       70.20       70.19       70.17       70.16       70.14       70.13       70.12    
        70.10       70.09       70.08       70.07       70.06       70.04       70.03       70.02       70.01       70.00    
  44   -1000.      -1000.       70.67       70.66       70.65       70.65       70.64       70.63       70.62       70.61    
        70.60       70.58       70.57       70.55       70.54       70.52       70.50       70.48       70.46       70.44    
        70.42       70.41       70.39       70.37       70.35       70.34       70.32       70.30       70.28       70.27    
        70.25       70.24       70.22       70.20       70.19       70.17       70.16       70.15       70.13       70.12    
        70.11       70.09       70.08       70.07       70.06       70.05       70.03       70.02       70.01       70.00    
  45   -1000.      -1000.      -1000.       70.66       70.66       70.65       70.64       70.63       70.62       70.61    
        70.60       70.58       70.57       70.55       70.53       70.52       70.50       70.48       70.46       70.44    
        70.43       70.41       70.39       70.37       70.35       70.34       70.32       70.30       70.29       70.27    
        70.25       70.24       70.22       70.21       70.19       70.18       70.16       70.15       70.13       70.12    
        70.11       70.09       70.08       70.07       70.06       70.05       70.03       70.02       70.01       70.00    
  46   -1000.      -1000.      -1000.      -1000.       70.66       70.65       70.64       70.63       70.62       70.61    
        70.59       70.58       70.57       70.55       70.53       70.52       70.50       70.48       70.46       70.44    
        70.43       70.41       70.39       70.37       70.35       70.34       70.32       70.30       70.29       70.27    
        70.25       70.24       70.22       70.21       70.19       70.18       70.16       70.15       70.14       70.12    
        70.11       70.10       70.08       70.07       70.06       70.05       70.04       70.02       70.01       70.00    
  47   -1000.      -1000.      -1000.      -1000.      -1000.       70.65       70.64       70.62       70.61       70.60    
        70.59       70.58       70.57       70.55       70.53       70.52       70.50       70.48       70.46       70.44    
        70.43       70.41       70.39       70.37       70.36       70.34       70.32       70.30       70.29       70.27    
        70.26       70.24       70.22       70.21       70.19       70.18       70.16       70.15       70.14       70.12    
        70.11       70.10       70.08       70.07       70.06       70.05       70.04       70.02       70.01       70.00    
  48   -1000.      -1000.      -1000.      -1000.      -1000.      -1000.       70.64       70.62       70.61       70.60    
        70.59       70.58       70.57       70.55       70.53       70.52       70.50       70.48       70.46       70.44    
        70.43       70.41       70.39       70.37       70.36       70.34       70.32       70.31       70.29       70.27    
        70.26       70.24       70.23       70.21       70.19       70.18       70.17       70.15       70.14       70.12    
        70.11       70.10       70.09       70.07       70.06       70.05       70.04       70.02       70.01       70.00    
  49   -1000.      -1000.      -1000.      -1000.      -1000.      -1000.      -1000.       70.62       70.61       70.60    
        70.59       70.58       70.56       70.55       70.53       70.52       70.50       70.48       70.46       70.44    
        70.43       70.41       70.39       70.37       70.36       70.34       70.32       70.31       70.29       70.27    
        70.26       70.24       70.23       70.21       70.20       70.18       70.17       70.15       70.14       70.12    
        70.11       70.10       70.09       70.07       70.06       70.05       70.04       70.02       70.01       70.00    
  50   -1000.      -1000.      -1000.      -1000.      -1000.      -1000.      -1000.      -1000.       70.61       70.60    
        70.59       70.58       70.56       70.55       70.53       70.52       70.50       70.48       70.46       70.44    
        70.43       70.41       70.39       70.37       70.36       70.34       70.32       70.31       70.29       70.27    
        70.26       70.24       70.23       70.21       70.20       70.18       70.17       70.15       70.14       70.13    
        70.11       70.10       70.09       70.07       70.06       70.05       70.04       70.02       70.01       70.00    
1
              HEAD IN LAYER   3 AT END OF TIME STEP   1 IN STRESS PERIOD    1
  ---------------------------------------------------------------------------

            1           2           3           4           5           6           7           8           9          10
           11          12          13          14          15          16          17          18          19          20
           21          22          23          24          25          26          27          28          29          30
           31          32          33          34          35          36          37          38          39          40
           41          42          43          44          45          46          47          48          49          50
 ........................................................................................................................
   1   -1000.      -1000.      -1000.      -1000.      -1000.      -1000.      -1000.      -1000.      -1000.      -1000.    
        70.55       70.54       70.53       70.51       70.50       70.48       70.46       70.44       70.42       70.40    
        70.38       70.36       70.34       70.32       70.30       70.29       70.27       70.25       70.23       70.22    
        70.20       70.18       70.17       70.15       70.14       70.12       70.11       70.10       70.09       70.08    
        70.07       70.06       70.05       70.04       70.03       70.03       70.02       70.01       70.01       70.00    
   2   -1000.      -1000.      -1000.      -1000.      -1000.      -1000.      -1000.      -1000.      -1000.       70.57    
        70.56       70.54       70.53       70.51       70.50       70.48       70.46       70.44       70.42       70.40    
        70.38       70.36       70.34       70.32       70.30       70.29       70.27       70.25       70.23       70.22    
        70.20       70.18       70.17       70.15       70.14       70.12       70.11       70.10       70.09       70.08    
        70.07       70.06       70.05       70.04       70.03       70.02       70.02       70.01       70.01       70.00    
   3   -1000.      -1000.      -1000.      -1000.      -1000.      -1000.      -1000.      -1000.       70.58       70.57    
        70.56       70.55       70.53       70.51       70.50       70.48       70.46       70.44       70.42       70.40    
        70.38       70.36       70.34       70.32       70.30       70.29       70.27       70.25       70.23       70.21    
        70.20       70.18       70.17       70.15       70.14       70.12       70.11       70.10       70.09       70.07    
        70.06       70.06       70.05       70.04       70.03       70.02       70.02       70.01       70.01       70.00    
   4   -1000.      -1000.      -1000.      -1000.      -1000.      -1000.      -1000.       70.59       70.58       70.57    
        70.56       70.55       70.53       70.52       70.50       70.48       70.46       70.44       70.42       70.40    
        70.38       70.36       70.34       70.32       70.30       70.29       70.27       70.25       70.23       70.21    
        70.20       70.18       70.16       70.15       70.13       70.12       70.11       70.10       70.08       70.07    
        70.06       70.05       70.05       70.04       70.03       70.02       70.02       70.01       70.01       70.00    
   5   -1000.      -1000.      -1000.      -1000.      -1000.      -1000.       70.61       70.60       70.59       70.58    
        70.56       70.55       70.53       70.52       70.50       70.48       70.46       70.44       70.42       70.40    
        70.38       70.36       70.34       70.32       70.30       70.28       70.27       70.25       70.23       70.21    
        70.20       70.18       70.16       70.15       70.13       70.12       70.11       70.09       70.08       70.07    
[...]
        69.97       69.98       69.98       69.98       69.99       69.99       69.99       69.99       70.00       70.00    
  24    70.66       70.66       70.66       70.66       70.65       70.64       70.63       70.62       70.61       70.60    
        70.59       70.57       70.55       70.54       70.52       70.50       70.47       70.45       70.43       70.41    
        70.39       70.37       70.35       70.33       70.30       70.28       70.26       70.24       70.21       70.19    
        70.17       70.14       70.12       70.09       70.07       70.04       70.02       70.00       69.99       69.99    
        69.99       69.99       69.99       69.99       69.99       69.99       69.99       70.00       70.00       70.00    
  25    70.66       70.66       70.66       70.66       70.65       70.64       70.64       70.63       70.61       70.60    
        70.59       70.57       70.56       70.54       70.52       70.50       70.48       70.46       70.43       70.41    
        70.39       70.37       70.35       70.33       70.31       70.29       70.26       70.24       70.22       70.20    
        70.17       70.15       70.13       70.10       70.08       70.06       70.04       70.02       70.01       70.00    
        70.00       70.00       70.00       70.00       70.00       70.00       70.00       70.00       70.00       70.00    
  26    70.67       70.66       70.66       70.66       70.65       70.64       70.64       70.63       70.62       70.60    
        70.59       70.57       70.56       70.54       70.52       70.50       70.48       70.46       70.44       70.41    
        70.39       70.37       70.35       70.33       70.31       70.29       70.27       70.24       70.22       70.20    
        70.18       70.16       70.13       70.11       70.09       70.07       70.05       70.04       70.03       70.02    
        70.01       70.01       70.00       70.00       70.00       70.00       70.00       70.00       70.00       70.00    
  27    70.67       70.66       70.66       70.66       70.65       70.65       70.64       70.63       70.62       70.60    
        70.59       70.58       70.56       70.54       70.52       70.50       70.48       70.46       70.44       70.42    
        70.40       70.38       70.35       70.33       70.31       70.29       70.27       70.25       70.23       70.21    
        70.19       70.16       70.14       70.12       70.10       70.08       70.07       70.05       70.04       70.03    
        70.02       70.02       70.01       70.01       70.01       70.01       70.00       70.00       70.00       70.00    
  28    70.67       70.67       70.66       70.66       70.65       70.65       70.64       70.63       70.62       70.61    
        70.59       70.58       70.56       70.54       70.52       70.50       70.48       70.46       70.44       70.42    
        70.40       70.38       70.36       70.34       70.32       70.29       70.27       70.25       70.23       70.21    
        70.19       70.17       70.15       70.13       70.11       70.10       70.08       70.07       70.05       70.04    
        70.03       70.03       70.02       70.02       70.01       70.01       70.01       70.00       70.00       70.00    
  29    70.67       70.67       70.66       70.66       70.65       70.65       70.64       70.63       70.62       70.61    
        70.59       70.58       70.56       70.54       70.52       70.50       70.48       70.46       70.44       70.42    
        70.40       70.38       70.36       70.34       70.32       70.30       70.28       70.26       70.24       70.22    
        70.20       70.18       70.16       70.14       70.12       70.11       70.09       70.08       70.06       70.05    
        70.04       70.04       70.03       70.02       70.02       70.01       70.01       70.01       70.00       70.00    
  30    70.67       70.67       70.66       70.66       70.65       70.65       70.64       70.63       70.62       70.61    
        70.59       70.58       70.56       70.54       70.53       70.50       70.48       70.46       70.44       70.42    
        70.40       70.38       70.36       70.34       70.32       70.30       70.28       70.26       70.24       70.22    
        70.20       70.18       70.17       70.15       70.13       70.11       70.10       70.09       70.07       70.06    
        70.05       70.04       70.04       70.03       70.02       70.02       70.01       70.01       70.00       70.00    
  31    70.67       70.67       70.67       70.66       70.66       70.65       70.64       70.63       70.62       70.61    
        70.59       70.58       70.56       70.55       70.53       70.51       70.49       70.47       70.44       70.42    
        70.40       70.38       70.36       70.34       70.33       70.31       70.29       70.27       70.25       70.23    
        70.21       70.19       70.17       70.16       70.14       70.12       70.11       70.09       70.08       70.07    
        70.06       70.05       70.04       70.03       70.03       70.02       70.02       70.01       70.01       70.00    
  32    70.67       70.67       70.67       70.66       70.66       70.65       70.64       70.63       70.62       70.61    
        70.60       70.58       70.56       70.55       70.53       70.51       70.49       70.47       70.45       70.43    
        70.41       70.39       70.37       70.35       70.33       70.31       70.29       70.27       70.25       70.23    
        70.21       70.20       70.18       70.16       70.15       70.13       70.12       70.10       70.09       70.08    
        70.07       70.06       70.05       70.04       70.03       70.02       70.02       70.01       70.01       70.00    
  33    70.67       70.67       70.67       70.66       70.66       70.65       70.64       70.63       70.62       70.61    
        70.60       70.58       70.57       70.55       70.53       70.51       70.49       70.47       70.45       70.43    
        70.41       70.39       70.37       70.35       70.33       70.31       70.29       70.27       70.26       70.24    
        70.22       70.20       70.18       70.17       70.15       70.14       70.12       70.11       70.10       70.08    
        70.07       70.06       70.05       70.04       70.04       70.03       70.02       70.01       70.01       70.00    
  34    70.67       70.67       70.67       70.66       70.66       70.65       70.64       70.63       70.62       70.61    
        70.60       70.58       70.57       70.55       70.53       70.51       70.49       70.47       70.45       70.43    
        70.41       70.39       70.37       70.35       70.33       70.32       70.30       70.28       70.26       70.24    
        70.22       70.21       70.19       70.17       70.16       70.14       70.13       70.11       70.10       70.09    
        70.08       70.07       70.06       70.05       70.04       70.03       70.02       70.02       70.01       70.00    
  35    70.67       70.67       70.67       70.66       70.66       70.65       70.64       70.63       70.62       70.61    
        70.60       70.58       70.57       70.55       70.53       70.51       70.49       70.47       70.45       70.43    
        70.41       70.39       70.37       70.36       70.34       70.32       70.30       70.28       70.26       70.25    
        70.23       70.21       70.19       70.18       70.16       70.15       70.13       70.12       70.11       70.09    
        70.08       70.07       70.06       70.05       70.04       70.03       70.02       70.02       70.01       70.00    
  36    70.67       70.67       70.67       70.66       70.66       70.65       70.64       70.63       70.62       70.61    
        70.60       70.58       70.57       70.55       70.53       70.51       70.49       70.47       70.45       70.43    
        70.41       70.40       70.38       70.36       70.34       70.32       70.30       70.28       70.27       70.25    
        70.23       70.22       70.20       70.18       70.17       70.15       70.14       70.13       70.11       70.10    
        70.09       70.08       70.07       70.06       70.05       70.04       70.03       70.02       70.01       70.00    
  37    70.67       70.67       70.67       70.66       70.66       70.65       70.64       70.63       70.62       70.61    
        70.60       70.58       70.57       70.55       70.53       70.51       70.49       70.47       70.45       70.44    
        70.42       70.40       70.38       70.36       70.34       70.32       70.31       70.29       70.27       70.25    
        70.24       70.22       70.20       70.19       70.17       70.16       70.14       70.13       70.12       70.10    
        70.09       70.08       70.07       70.06       70.05       70.04       70.03       70.02       70.01       70.00    
  38    70.67       70.67       70.67       70.66       70.66       70.65       70.64       70.63       70.62       70.61    
        70.60       70.58       70.57       70.55       70.53       70.51       70.49       70.48       70.46       70.44    
        70.42       70.40       70.38       70.36       70.34       70.33       70.31       70.29       70.27       70.26    
        70.24       70.22       70.21       70.19       70.18       70.16       70.15       70.13       70.12       70.11    
        70.09       70.08       70.07       70.06       70.05       70.04       70.03       70.02       70.01       70.00    
  39    70.67       70.67       70.67       70.66       70.66       70.65       70.64       70.63       70.62       70.61    
        70.60       70.58       70.57       70.55       70.53       70.51       70.50       70.48       70.46       70.44    
        70.42       70.40       70.38       70.36       70.35       70.33       70.31       70.29       70.28       70.26    
        70.24       70.23       70.21       70.19       70.18       70.16       70.15       70.14       70.12       70.11    
        70.10       70.09       70.07       70.06       70.05       70.04       70.03       70.02       70.01       70.00    
  40    70.67       70.67       70.67       70.66       70.66       70.65       70.64       70.63       70.62       70.61    
        70.60       70.58       70.57       70.55       70.53       70.52       70.50       70.48       70.46       70.44    
        70.42       70.40       70.38       70.37       70.35       70.33       70.31       70.30       70.28       70.26    
        70.25       70.23       70.21       70.20       70.18       70.17       70.15       70.14       70.13       70.11    
        70.10       70.09       70.08       70.07       70.05       70.04       70.03       70.02       70.01       70.00    
  41   -1000.       70.67       70.67       70.66       70.66       70.65       70.64       70.63       70.62       70.61    
        70.60       70.58       70.57       70.55       70.53       70.52       70.50       70.48       70.46       70.44    
        70.42       70.40       70.39       70.37       70.35       70.33       70.31       70.30       70.28       70.26    
        70.25       70.23       70.22       70.20       70.19       70.17       70.16       70.14       70.13       70.12    
        70.10       70.09       70.08       70.07       70.06       70.04       70.03       70.02       70.01       70.00    
  42   -1000.      -1000.       70.67       70.66       70.66       70.65       70.64       70.63       70.62       70.61    
        70.60       70.58       70.57       70.55       70.53       70.52       70.50       70.48       70.46       70.44    
        70.42       70.40       70.39       70.37       70.35       70.33       70.32       70.30       70.28       70.27    
        70.25       70.23       70.22       70.20       70.19       70.17       70.16       70.15       70.13       70.12    
        70.11       70.09       70.08       70.07       70.06       70.05       70.03       70.02       70.01       70.00    
  43   -1000.      -1000.      -1000.       70.66       70.66       70.65       70.64       70.63       70.62       70.61    
        70.60       70.58       70.57       70.55       70.54       70.52       70.50       70.48       70.46       70.44    
        70.42       70.41       70.39       70.37       70.35       70.34       70.32       70.30       70.28       70.27    
        70.25       70.24       70.22       70.21       70.19       70.18       70.16       70.15       70.13       70.12    
        70.11       70.09       70.08       70.07       70.06       70.05       70.03       70.02       70.01       70.00    
  44   -1000.      -1000.      -1000.      -1000.       70.65       70.65       70.64       70.63       70.62       70.61    
        70.60       70.58       70.57       70.55       70.54       70.52       70.50       70.48       70.46       70.44    
        70.42       70.41       70.39       70.37       70.35       70.34       70.32       70.30       70.29       70.27    
        70.25       70.24       70.22       70.21       70.19       70.18       70.16       70.15       70.14       70.12    
        70.11       70.10       70.08       70.07       70.06       70.05       70.03       70.02       70.01       70.00    
  45   -1000.      -1000.      -1000.      -1000.      -1000.       70.65       70.64       70.63       70.62       70.61    
        70.60       70.58       70.57       70.55       70.53       70.52       70.50       70.48       70.46       70.44    
        70.43       70.41       70.39       70.37       70.35       70.34       70.32       70.30       70.29       70.27    
        70.25       70.24       70.22       70.21       70.19       70.18       70.16       70.15       70.14       70.12    
        70.11       70.10       70.08       70.07       70.06       70.05       70.04       70.02       70.01       70.00    
  46   -1000.      -1000.      -1000.      -1000.      -1000.      -1000.       70.64       70.63       70.62       70.61    
        70.59       70.58       70.57       70.55       70.53       70.52       70.50       70.48       70.46       70.44    
        70.43       70.41       70.39       70.37       70.36       70.34       70.32       70.30       70.29       70.27    
        70.26       70.24       70.22       70.21       70.19       70.18       70.17       70.15       70.14       70.12    
        70.11       70.10       70.09       70.07       70.06       70.05       70.04       70.02       70.01       70.00    
  47   -1000.      -1000.      -1000.      -1000.      -1000.      -1000.      -1000.       70.62       70.61       70.60    
        70.59       70.58       70.57       70.55       70.53       70.52       70.50       70.48       70.46       70.44    
        70.43       70.41       70.39       70.37       70.36       70.34       70.32       70.31       70.29       70.27    
        70.26       70.24       70.23       70.21       70.20       70.18       70.17       70.15       70.14       70.13    
        70.11       70.10       70.09       70.07       70.06       70.05       70.04       70.02       70.01       70.00    
  48   -1000.      -1000.      -1000.      -1000.      -1000.      -1000.      -1000.      -1000.       70.61       70.60    
        70.59       70.58       70.57       70.55       70.53       70.52       70.50       70.48       70.46       70.44    
        70.43       70.41       70.39       70.37       70.36       70.34       70.32       70.31       70.29       70.27    
        70.26       70.24       70.23       70.21       70.20       70.18       70.17       70.15       70.14       70.13    
        70.11       70.10       70.09       70.07       70.06       70.05       70.04       70.02       70.01       70.00    
  49   -1000.      -1000.      -1000.      -1000.      -1000.      -1000.      -1000.      -1000.      -1000.       70.60    
        70.59       70.58       70.56       70.55       70.53       70.52       70.50       70.48       70.46       70.44    
        70.43       70.41       70.39       70.37       70.36       70.34       70.32       70.31       70.29       70.27    
        70.26       70.24       70.23       70.21       70.20       70.18       70.17       70.15       70.14       70.13    
        70.11       70.10       70.09       70.07       70.06       70.05       70.04       70.02       70.01       70.00    
  50   -1000.      -1000.      -1000.      -1000.      -1000.      -1000.      -1000.      -1000.      -1000.      -1000.    
        70.59       70.58       70.56       70.55       70.53       70.52       70.50       70.48       70.46       70.44    
        70.43       70.41       70.39       70.37       70.36       70.34       70.32       70.31       70.29       70.27    
        70.26       70.24       70.23       70.21       70.20       70.18       70.17       70.15       70.14       70.13    
        70.11       70.10       70.09       70.07       70.06       70.05       70.04       70.02       70.01       70.00    

 HEAD WILL BE SAVED ON UNIT   51 AT END OF TIME STEP    1, STRESS PERIOD    1

 DRAWDOWN WILL BE SAVED ON UNIT   52 AT END OF TIME STEP    1, STRESS PERIOD    1
1
  VOLUMETRIC BUDGET FOR ENTIRE MODEL AT END OF TIME STEP    1, STRESS PERIOD   1
  ------------------------------------------------------------------------------

     CUMULATIVE VOLUMES      L**3       RATES FOR THIS TIME STEP      L**3/T
     ------------------                 ------------------------

           IN:                                      IN:
           ---                                      ---
             STORAGE =           0.0000               STORAGE =           0.0000
       CONSTANT HEAD =      525832.5625         CONSTANT HEAD =        2921.2920
               WELLS =           0.0000                 WELLS =           0.0000
                  ET =           0.0000                    ET =           0.0000
            RECHARGE =     1274400.0000              RECHARGE =        7080.0000
      STREAM LEAKAGE =       32580.0000        STREAM LEAKAGE =         181.0000

            TOTAL IN =     1832812.5000              TOTAL IN =       10182.2920

          OUT:                                     OUT:
          ----                                     ----
             STORAGE =           0.0000               STORAGE =           0.0000
       CONSTANT HEAD =      272705.1562         CONSTANT HEAD =        1515.0286
               WELLS =     1560107.5000                 WELLS =        8667.2637
                  ET =           0.0000                    ET =           0.0000
            RECHARGE =           0.0000              RECHARGE =           0.0000
      STREAM LEAKAGE =           0.0000        STREAM LEAKAGE =           0.0000

           TOTAL OUT =     1832812.6250             TOTAL OUT =       10182.2920

            IN - OUT =          -0.1250              IN - OUT =           0.0000

 PERCENT DISCREPANCY =          -0.00     PERCENT DISCREPANCY =           0.00






         TIME SUMMARY AT END OF TIME STEP    1 IN STRESS PERIOD    1
                    SECONDS     MINUTES      HOURS       DAYS        YEARS
                    -----------------------------------------------------------
   TIME STEP LENGTH 1.55520E+07 2.59200E+05  4320.0      180.00     0.49281    
 STRESS PERIOD TIME 1.55520E+07 2.59200E+05  4320.0      180.00     0.49281    
         TOTAL TIME 1.55520E+07 2.59200E+05  4320.0      180.00     0.49281    
1

 Run end date and time (yyyy/mm/dd hh:mm:ss): 2023/04/12 12:24:54
 Elapsed run time:  0.172 Seconds

