                                  MODFLOW-2005     
      U.S. GEOLOGICAL SURVEY MODULAR FINITE-DIFFERENCE GROUND-WATER FLOW MODEL
                            VERSION 1.11.00 8/8/2013

 LIST FILE: BASE.list
                         UNIT    2

 OPENING BASE.dis
 FILE TYPE:DIS   UNIT   11   STATUS:OLD    
 FORMAT:FORMATTED              ACCESS:SEQUENTIAL          

 OPENING BASE.bas
 FILE TYPE:BAS6   UNIT   13   STATUS:OLD    
 FORMAT:FORMATTED              ACCESS:SEQUENTIAL          

 OPENING BASE.lpf
 FILE TYPE:LPF   UNIT   15   STATUS:OLD    
 FORMAT:FORMATTED              ACCESS:SEQUENTIAL          

 OPENING BASE.oc
 FILE TYPE:OC   UNIT   14   STATUS:OLD    
 FORMAT:FORMATTED              ACCESS:SEQUENTIAL          

 OPENING BASE.pcg
 FILE TYPE:PCG   UNIT   27   STATUS:OLD    
 FORMAT:FORMATTED              ACCESS:SEQUENTIAL          

 OPENING BASE.rch
 FILE TYPE:RCH   UNIT   19   STATUS:OLD    
 FORMAT:FORMATTED              ACCESS:SEQUENTIAL          

 OPENING BASE.evt
 FILE TYPE:EVT   UNIT   22   STATUS:OLD    
 FORMAT:FORMATTED              ACCESS:SEQUENTIAL          

 OPENING BASE.wel
 FILE TYPE:WEL   UNIT   20   STATUS:OLD    
 FORMAT:FORMATTED              ACCESS:SEQUENTIAL          

 OPENING BASE.str
 FILE TYPE:STR   UNIT  118   STATUS:OLD    
 FORMAT:FORMATTED              ACCESS:SEQUENTIAL          

 OPENING BASE.cbc
 FILE TYPE:DATA(BINARY)   UNIT   53   STATUS:REPLACE
 FORMAT:BINARY                 ACCESS:SEQUENTIAL          

 OPENING BASE.hds
 FILE TYPE:DATA(BINARY)   UNIT   51   STATUS:REPLACE
 FORMAT:BINARY                 ACCESS:SEQUENTIAL          

 OPENING BASE.ddn
 FILE TYPE:DATA(BINARY)   UNIT   52   STATUS:REPLACE
 FORMAT:BINARY                 ACCESS:SEQUENTIAL          

 BAS -- BASIC PACKAGE, VERSION 7, 5/2/2005 INPUT READ FROM UNIT   13
 
 MODFLOW was compiled using mixed precision
 Precision of REAL variables:           6
 Precision of DOUBLE PRECISION variables:          15

 DISCRETIZATION INPUT DATA READ FROM UNIT   11
 # DIS package for  MODFLOW-2005, generated by Flopy.
    3 LAYERS        50 ROWS        50 COLUMNS
    1 STRESS PERIOD(S) IN SIMULATION
 MODEL TIME UNIT IS DAYS
 MODEL LENGTH UNIT IS METERS
  Confining bed flag for each layer:
   0   0   0

                     DELR =  1000.000    

                     DELC =  1000.000    



           TOP ELEVATION OF LAYER 1
 READING ON UNIT   11 WITH FORMAT: (50E15.6)           



             MODEL LAYER BOTTOM EL. FOR LAYER   1
 READING ON UNIT   11 WITH FORMAT: (50E15.6)           



             MODEL LAYER BOTTOM EL. FOR LAYER   2
 READING ON UNIT   11 WITH FORMAT: (50E15.6)           



             MODEL LAYER BOTTOM EL. FOR LAYER   3
 READING ON UNIT   11 WITH FORMAT: (50E15.6)           


 STRESS PERIOD     LENGTH       TIME STEPS     MULTIPLIER FOR DELT    SS FLAG
 ----------------------------------------------------------------------------
        1         180.0000          1                    1.000         SS

 STEADY-STATE SIMULATION



 
 # BAS6 package for  MODFLOW-2005, generated by Flopy.                           
 THE FREE FORMAT OPTION HAS BEEN SELECTED



                     BOUNDARY ARRAY FOR LAYER   1
 READING ON UNIT   13 WITH FORMAT: (50I10)             



                     BOUNDARY ARRAY FOR LAYER   2
 READING ON UNIT   13 WITH FORMAT: (50I10)             



                     BOUNDARY ARRAY FOR LAYER   3
 READING ON UNIT   13 WITH FORMAT: (50I10)             

 AQUIFER HEAD WILL BE SET TO  -999.99     AT ALL NO-FLOW NODES (IBOUND=0).



                       INITIAL HEAD FOR LAYER   1
 READING ON UNIT   13 WITH FORMAT: (50E15.6)           



                       INITIAL HEAD FOR LAYER   2
 READING ON UNIT   13 WITH FORMAT: (50E15.6)           



                       INITIAL HEAD FOR LAYER   3
 READING ON UNIT   13 WITH FORMAT: (50E15.6)           
 # OC package for  MODFLOW-2005, generated by Flopy.

 OUTPUT CONTROL IS SPECIFIED ONLY AT TIME STEPS FOR WHICH OUTPUT IS DESIRED
 COMPACT CELL-BY-CELL BUDGET FILES WILL BE WRITTEN
 AUXILIARY DATA WILL BE SAVED IN CELL-BY-CELL BUDGET FILES
 HEAD PRINT FORMAT CODE IS   0    DRAWDOWN PRINT FORMAT CODE IS   0
 HEADS WILL BE SAVED ON UNIT   51    DRAWDOWNS WILL BE SAVED ON UNIT   52

 LPF -- LAYER-PROPERTY FLOW PACKAGE, VERSION 7, 5/2/2005
         INPUT READ FROM UNIT   15
 # LPF package for  MODFLOW-2005, generated by Flopy.
 CELL-BY-CELL FLOWS WILL BE SAVED ON UNIT   53
 HEAD AT CELLS THAT CONVERT TO DRY= -1.00000E+30
 No named parameters

   LAYER FLAGS:
 LAYER       LAYTYP        LAYAVG         CHANI        LAYVKA        LAYWET
 ---------------------------------------------------------------------------
    1             1             0     0.000E+00             0             0
    2             1             0     0.000E+00             0             0
    3             1             0     0.000E+00             0             0

   INTERPRETATION OF LAYER FLAGS:
                        INTERBLOCK     HORIZONTAL    DATA IN
         LAYER TYPE   TRANSMISSIVITY   ANISOTROPY   ARRAY VKA   WETTABILITY
 LAYER      (LAYTYP)      (LAYAVG)       (CHANI)      (LAYVKA)      (LAYWET)
 ---------------------------------------------------------------------------
    1   CONVERTIBLE      HARMONIC      VARIABLE    VERTICAL K  NON-WETTABLE
    2   CONVERTIBLE      HARMONIC      VARIABLE    VERTICAL K  NON-WETTABLE
    3   CONVERTIBLE      HARMONIC      VARIABLE    VERTICAL K  NON-WETTABLE

 WETTING CAPABILITY IS NOT ACTIVE IN ANY LAYER

    HYD. COND. ALONG ROWS =  10.00000     FOR LAYER   1

   HORIZ. ANI. (COL./ROW) =  1.000000     FOR LAYER   1



                VERTICAL HYD. COND. FOR LAYER   1
 READING ON UNIT   15 WITH FORMAT: (50E15.6)           

    HYD. COND. ALONG ROWS =  10.00000     FOR LAYER   2

   HORIZ. ANI. (COL./ROW) =  1.000000     FOR LAYER   2



                VERTICAL HYD. COND. FOR LAYER   2
 READING ON UNIT   15 WITH FORMAT: (50E15.6)           

    HYD. COND. ALONG ROWS =  10.00000     FOR LAYER   3

   HORIZ. ANI. (COL./ROW) =  1.000000     FOR LAYER   3



                VERTICAL HYD. COND. FOR LAYER   3
 READING ON UNIT   15 WITH FORMAT: (50E15.6)           

 WEL -- WELL PACKAGE, VERSION 7, 5/2/2005 INPUT READ FROM UNIT   20
 # WEL package for  MODFLOW-2005, generated by Flopy.
 No named parameters
 MAXIMUM OF      2 ACTIVE WELLS AT ONE TIME


     0 Well parameters

 EVT -- EVAPOTRANSPIRATION PACKAGE, VERSION 7, 5/2/2005
         INPUT READ FROM UNIT   22
 # EVT package for  MODFLOW-2005, generated by Flopy.
 No named parameters
 OPTION 3 -- EVAPOTRANSPIRATION FROM HIGHEST ACTIVE NODE IN EACH VERTICAL COLUMN
 CELL-BY-CELL FLOWS WILL BE SAVED ON UNIT   53


     0 Evapotranspiration parameters

 RCH -- RECHARGE PACKAGE, VERSION 7, 5/2/2005 INPUT READ FROM UNIT   19
 # RCH package for  MODFLOW-2005, generated by Flopy.
 No named parameters
 OPTION 3 -- RECHARGE TO HIGHEST ACTIVE NODE IN EACH VERTICAL COLUMN


     0 Recharge parameters

 STR -- STREAM PACKAGE, VERSION 7, 5/2/2005 INPUT READ FROM UNIT  118
 # STR package for  MODFLOW-2005, generated by Flopy.
 No named parameters
 MAXIMUM OF     49 ACTIVE STREAM NODES AT ONE TIME
 NUMBER OF STREAM SEGMENTS IS      3
 NUMBER OF STREAM TRIBUTARIES IS      2
 STREAM STAGES WILL BE CALCULATED USING A CONSTANT OF 86400.0000
 CELL BUDGETS WILL BE SAVED ON UNITS   53 AND   53


     0 Stream parameters

 PCG -- CONJUGATE-GRADIENT SOLUTION PACKAGE, VERSION 7, 5/2/2005
 # PCG package for  MODFLOW-2005, generated by Flopy.
 MAXIMUM OF     50 CALLS OF SOLUTION ROUTINE
 MAXIMUM OF     30 INTERNAL ITERATIONS PER CALL TO SOLUTION ROUTINE
 MATRIX PRECONDITIONING TYPE :    1



                                    SOLUTION BY THE CONJUGATE-GRADIENT METHOD
                                   -------------------------------------------
                    MAXIMUM NUMBER OF CALLS TO PCG ROUTINE =       50
                        MAXIMUM ITERATIONS PER CALL TO PCG =       30
                               MATRIX PRECONDITIONING TYPE =        1
        RELAXATION FACTOR (ONLY USED WITH PRECOND. TYPE 1) =    0.10000E+01
 PARAMETER OF POLYNOMIAL PRECOND. = 2 (2) OR IS CALCULATED :        0
                         HEAD CHANGE CRITERION FOR CLOSURE =    0.10000E-04
                     RESIDUAL CHANGE CRITERION FOR CLOSURE =    0.10000E-04
            PCG HEAD AND RESIDUAL CHANGE PRINTOUT INTERVAL =      999
     PRINTING FROM SOLVER IS LIMITED(1) OR SUPPRESSED (>1) =        3
                            STEADY-STATE DAMPING PARAMETER =    0.10000E+01
                               TRANSIENT DAMPING PARAMETER =    0.10000E+01
1
                            STRESS PERIOD NO.    1, LENGTH =   180.0000    
                            -----------------------------------------------

                              NUMBER OF TIME STEPS =     1

                               MULTIPLIER FOR DELT =     1.000

                            INITIAL TIME STEP SIZE =   180.0000    

 WELL NO.  LAYER   ROW   COL   STRESS RATE         
 --------------------------------------------------
      1      3     21     38      -1810.    
      2      1     19     43      -6857.    

      2 WELLS



                         ET SURFACE
 READING ON UNIT   22 WITH FORMAT: (50E15.6)           



            EVAPOTRANSPIRATION RATE
 READING ON UNIT   22 WITH FORMAT: (50E15.6)           



                   EXTINCTION DEPTH
 READING ON UNIT   22 WITH FORMAT: (50E15.6)           



                           RECHARGE
 READING ON UNIT   19 WITH FORMAT: (50E15.6)           

     49 STREAM REACHES
 
 SOLVING FOR HEAD 

 MAXIMUM HEAD CHANGE FOR EACH ITERATION (1 INDICATES THE FIRST INNER ITERATION):

    HEAD CHANGE    HEAD CHANGE    HEAD CHANGE    HEAD CHANGE    HEAD CHANGE 
   LAYER,ROW,COL  LAYER,ROW,COL  LAYER,ROW,COL  LAYER,ROW,COL  LAYER,ROW,COL
 ---------------------------------------------------------------------------
  1   7.503      0   3.769      0   3.454      0   3.273      0   2.032    
   (  1, 46,  3)  (  2,  6,  4)  (  2,  1,  9)  (  2,  1, 20)  (  2,  1, 28)
  0   1.328      0   1.142      0  0.6871      0  0.4943      0 -0.3631    
   (  2,  1, 32)  (  2,  1, 36)  (  2,  1, 40)  (  2, 38,  1)  (  3, 50, 13)
  0  0.3188      0  0.2333      0  0.1934      0  0.3136      0 -0.2613    
   (  1, 45,  2)  (  2, 27,  2)  (  1, 44,  1)  (  1, 50, 20)  (  2, 44,  3)
  0  0.1771      0  0.1147      0 -0.8888E-01  0  0.6148E-01  0 -0.3889E-01
   (  2, 44,  3)  (  2, 50,  9)  (  1, 49,  6)  (  2, 50,  9)  (  2, 42,  1)
  0  0.2009E-01  0 -0.2903E-01  0  0.3229E-01  0 -0.1334E-01  0 -0.2448E-01
   (  1, 39,  7)  (  2, 46,  5)  (  2, 47,  6)  (  2, 47,  6)  (  1, 50,  8)
  0  0.1421E-01  0 -0.6098E-02  0 -0.5064E-02  0 -0.5791E-02  0  0.2159E-02
   (  1, 46,  3)  (  3, 37, 18)  (  2, 48,  7)  (  2, 50,  9)  (  2, 43,  2)
  1  -1.118      0  -1.170      0 -0.8770      0 -0.8028      0 -0.3576    
   (  1, 47,  4)  (  2,  8,  2)  (  1,  5,  4)  (  2,  1, 14)  (  2,  1, 27)
  0 -0.3909      0 -0.2580      0 -0.1748      0 -0.1675      0 -0.1985    
   (  2,  1, 30)  (  2,  1, 37)  (  2,  1, 41)  (  2, 49,  8)  (  2, 45,  4)
  0  0.1096      0 -0.7100E-01  0 -0.4053E-01  0 -0.5819E-01  0  0.2565E-01
   (  2, 44,  3)  (  2, 43,  2)  (  2, 42, 20)  (  2, 50,  9)  (  1, 48,  5)
  0 -0.3381E-01  0  0.3403E-01  0 -0.3314E-01  0  0.1903E-01  0 -0.9514E-02
   (  1, 40,  5)  (  2, 43,  2)  (  1, 50,  7)  (  1, 50,  7)  (  1, 50,  7)
  0 -0.1004E-01  0 -0.3553E-02  0 -0.2924E-02  0 -0.1990E-02  0 -0.9586E-03
   (  2, 42,  1)  (  2,  8, 18)  (  2,  1, 18)  (  3,  7, 12)  (  2, 34,  4)
  0  0.8393E-03  0  0.7477E-03  0  0.8468E-03  0 -0.1134E-02  0  0.9671E-03
   (  3, 41, 10)  (  2, 49,  8)  (  2, 42,  1)  (  2, 50,  9)  (  3, 37,  4)
  1  0.3504      0 -0.5706      0  0.2639      0 -0.1480      0  0.1356    
   (  1, 46,  3)  (  2, 50, 15)  (  3, 34,  9)  (  3, 32, 17)  (  3, 23,  6)
  0  0.1107      0 -0.8515E-01  0  0.1195      0  0.6214E-01  0 -0.9138E-01
   (  2, 41,  1)  (  2, 42,  1)  (  2, 43,  2)  (  2, 47,  6)  (  2, 47,  6)
  0  0.6292E-01  0 -0.2805E-01  0  0.1957E-01  0 -0.2100E-01  0  0.1881E-01
   (  2, 47,  6)  (  2, 44,  3)  (  2, 44,  3)  (  2, 44,  3)  (  2, 45,  4)
  0 -0.1459E-01  0  0.1352E-01  0 -0.1384E-01  0  0.1079E-01  0 -0.3266E-02
   (  2, 45,  4)  (  2, 39,  6)  (  2, 43,  2)  (  2, 49,  8)  (  2, 49,  8)
  0  0.2949E-02  0  0.3060E-02  0  0.2944E-02  0 -0.1473E-02  0  0.8252E-03
   (  2, 45,  4)  (  2, 42,  1)  (  1, 50,  7)  (  1, 50,  7)  (  2, 43, 26)
  0  0.1122E-02  0 -0.4303E-03  0 -0.5601E-03  0  0.7145E-03  0 -0.5446E-03
   (  1, 50,  7)  (  1, 50,  7)  (  2, 47,  6)  (  1, 50,  7)  (  3, 46, 14)
  1 -0.2142      0  0.1190      0 -0.5111E-01  0 -0.3449E-01  0 -0.2584E-01
   (  2, 47,  6)  (  2, 47,  6)  (  3,  2, 19)  (  2,  1, 27)  (  2,  1, 30)
  0 -0.2553E-01  0 -0.2567E-01  0  0.2308E-01  0 -0.1060E-01  0 -0.1539E-01
   (  2,  1, 36)  (  2, 48,  7)  (  2, 47,  6)  (  2, 47,  6)  (  1, 50,  7)
  0  0.7303E-02  0 -0.3836E-02  0 -0.4369E-02  0  0.2955E-02  0 -0.2433E-02
   (  1, 50,  7)  (  3, 21,  9)  (  2, 44,  3)  (  2, 44,  3)  (  2, 44,  3)
  0 -0.1915E-02  0 -0.1804E-02  0  0.1747E-02  0 -0.1589E-02  0 -0.4457E-03
   (  2, 49,  8)  (  3, 42,  3)  (  2, 42,  1)  (  1, 49,  6)  (  3, 11, 17)
  0  0.4054E-03  0  0.3616E-03  0 -0.3586E-03  0  0.1978E-03  0  0.1215E-03
   (  2, 42,  1)  (  1, 50,  7)  (  1, 50,  7)  (  1, 50,  7)  (  2, 48,  7)
  0 -0.8017E-04  0  0.6870E-04  0 -0.6377E-04  0  0.5135E-04  0 -0.7494E-04
   (  3, 18,  5)  (  2, 35, 19)  (  3, 31, 13)  (  3, 46, 14)  (  2, 44,  3)
  1  0.1301E-01  0 -0.1322E-01  0 -0.1486E-01  0 -0.8189E-02  0 -0.4235E-02
   (  1, 47,  4)  (  1, 19, 43)  (  1, 19, 43)  (  1, 27, 27)  (  3, 33, 15)
  0 -0.4471E-02  0 -0.2256E-02  0 -0.3279E-02  0  0.2096E-02  0 -0.1045E-02
   (  2, 49,  8)  (  1, 27, 27)  (  2, 46,  5)  (  2, 46,  5)  (  2, 45,  4)
  0  0.1059E-02  0 -0.1392E-02  0  0.1014E-02  0  0.8853E-03  0 -0.9032E-03
   (  1, 49,  6)  (  1, 49,  6)  (  2, 49,  8)  (  2, 44,  3)  (  2, 44,  3)
  0  0.5777E-03  0 -0.3747E-03  0 -0.1621E-03  0 -0.1471E-03  0  0.7402E-04
   (  2, 50,  9)  (  3, 32,  3)  (  2,  4,  6)  (  3, 10, 20)  (  2,  3,  7)
  0 -0.9086E-04  0 -0.8710E-04  0  0.7084E-04  0 -0.4283E-04  0 -0.1815E-04
   (  1, 50,  8)  (  2, 48,  7)  (  2, 42,  1)  (  2, 42,  1)  (  2, 45,  4)
  0 -0.2401E-04  0  0.2970E-04  0 -0.2515E-04  0  0.1828E-04  0  0.9757E-05
   (  2, 44,  3)  (  2, 45,  4)  (  2, 42,  1)  (  3, 45, 24)  (  2, 42,  1)
  1 -0.6150E-02  0 -0.2243E-02  0  0.1279E-02  0 -0.9220E-03  0  0.3972E-03
   (  1, 19, 43)  (  1, 19, 43)  (  1, 50,  7)  (  2, 45,  4)  (  3, 19, 43)
  0  0.3003E-03  0  0.4853E-03  0  0.2969E-03  0 -0.3733E-03  0  0.3140E-03
   (  2, 19, 43)  (  2, 42,  1)  (  2, 19, 43)  (  2, 47,  6)  (  2, 47,  6)
  0 -0.2019E-03  0  0.1991E-03  0 -0.9593E-04  0 -0.7927E-04  0  0.8263E-04
   (  2, 44,  3)  (  2, 44,  3)  (  2, 43,  2)  (  2, 49,  8)  (  1, 50,  7)
  0 -0.7254E-04  0  0.4137E-04  0 -0.3573E-04  0  0.3147E-04  0 -0.2092E-04
   (  1, 50,  7)  (  2, 50,  9)  (  2, 45,  4)  (  2, 42,  1)  (  2, 42,  1)
  0  0.1102E-04  0  0.1126E-04  0 -0.7348E-05  0  0.2991E-05  0  0.3080E-05
   (  2, 42,  1)  (  1, 50,  7)  (  1, 50,  7)  (  2, 43, 26)  (  2, 42,  1)
  0  0.2666E-05  0 -0.1413E-05  0 -0.1277E-05  0  0.1015E-05  0 -0.9242E-06
   (  3, 22,  6)  (  3, 44, 33)  (  2,  3, 17)  (  2, 49,  8)  (  2, 42,  1)
  1 -0.9459E-03  0 -0.8956E-03  0  0.1647E-03  0  0.9642E-04  0  0.7635E-04
   (  1, 19, 43)  (  1, 19, 43)  (  1, 47,  4)  (  3, 19, 43)  (  2, 19, 43)
  0  0.8277E-04  0  0.7192E-04  0  0.6783E-04  0 -0.5980E-04  0  0.2942E-04
   (  1, 50,  7)  (  2, 19, 43)  (  2, 47,  6)  (  2, 46,  5)  (  2, 46,  5)
  0 -0.2663E-04  0  0.3387E-04  0 -0.2052E-04  0 -0.1302E-04  0  0.1714E-04
   (  2, 49,  8)  (  1, 50,  7)  (  2, 49,  8)  (  2, 44,  3)  (  2, 44,  3)
  0 -0.1253E-04  0  0.9816E-05  0 -0.5963E-05  0  0.3169E-05  0 -0.2103E-05
   (  2, 43,  2)  (  2, 48,  7)  (  2, 48,  7)  (  3, 10, 30)  (  2, 20, 41)
  0 -0.1712E-05  0  0.1967E-05  0 -0.1656E-05  0  0.9997E-06  0  0.6288E-06
   (  2, 43,  2)  (  2, 43,  2)  (  2, 42,  1)  (  2, 42,  1)  (  2, 45,  4)
  0 -0.4873E-06  0  0.5082E-06  0  0.2744E-06  0 -0.3838E-06  0  0.3576E-06
   (  2, 46,  5)  (  2, 42,  1)  (  3, 37, 18)  (  2, 42,  1)  (  2, 47,  6)
  1 -0.3770E-03  0 -0.8565E-04  0  0.2599E-04  0  0.3070E-04  0 -0.1968E-04
   (  1, 19, 43)  (  2, 46,  5)  (  3, 19, 43)  (  2, 47,  6)  (  2, 47,  6)
  0 -0.1056E-04  0  0.1233E-04  0  0.8176E-05  0 -0.9800E-05  0  0.5978E-05
   (  3, 31, 14)  (  2, 19, 43)  (  3,  5, 19)  (  1, 50,  7)  (  1, 50,  7)
  0 -0.3311E-05  0 -0.4486E-05  0  0.3650E-05  0 -0.2731E-05  0  0.2066E-05
   (  2, 18, 43)  (  2, 49,  8)  (  1, 49,  6)  (  1, 50,  7)  (  1, 48,  5)
  0 -0.1994E-05  0  0.1744E-05  0 -0.1933E-05  0  0.1183E-05  0 -0.4810E-06
   (  2, 48,  7)  (  3, 36,  8)  (  2, 44,  3)  (  2, 44,  3)  (  2, 44,  3)
  0 -0.2527E-06  0 -0.2528E-06  0 -0.1900E-06  0  0.1900E-06  0  0.1894E-06
   (  2, 20, 41)  (  3,  6, 11)  (  1, 50,  7)  (  2, 45,  4)  (  2, 43,  2)
  0 -0.9312E-07  0 -0.8767E-07  0  0.8430E-07  0  0.5917E-07  0  0.3492E-07
   (  2, 42,  1)  (  2, 47,  6)  (  2, 42,  1)  (  1, 50,  7)  (  2, 44,  3)
  1 -0.8297E-04  0  0.1103E-04  0 -0.7376E-05  0  0.3990E-05  0  0.4576E-05
   (  1, 19, 43)  (  2, 47,  6)  (  2, 42,  1)  (  3, 19, 43)  (  2, 46,  5)
  0  0.2643E-05  0  0.2602E-05  0  0.3196E-05  0 -0.1695E-05  0 -0.1633E-05
   (  3, 35, 17)  (  2, 19, 43)  (  2, 47,  6)  (  2, 47,  6)  (  1, 50,  7)
  0  0.1504E-05  0 -0.6518E-06  0 -0.4318E-06  0  0.7042E-06  0 -0.5428E-06
   (  1, 50,  7)  (  3, 19,  9)  (  2, 43,  2)  (  2, 43,  2)  (  2, 44,  3)
  0 -0.3292E-06  0  0.3614E-06  0 -0.2380E-06  0  0.2441E-06  0 -0.1536E-06
   (  2, 48,  7)  (  2, 49,  8)  (  2, 49,  8)  (  2, 45,  4)  (  3, 46,  7)
  0 -0.6280E-07  0  0.9235E-07  0 -0.7557E-07  0  0.4622E-07  0  0.3316E-07
   (  1, 50,  7)  (  1, 50,  7)  (  1, 50,  7)  (  1, 50,  7)  (  2, 42,  1)
  0 -0.1694E-07  0 -0.1296E-07  0  0.9606E-08  0  0.1221E-07  0  0.1024E-07
   (  1, 20, 42)  (  3, 25,  9)  (  3, 34, 16)  (  1, 50,  7)  (  2, 49,  8)
  1 -0.1787E-04  0  0.1071E-05  0 -0.1745E-05  0  0.1105E-05  0  0.7697E-06
   (  1, 19, 43)  (  2, 18, 42)  (  2, 48,  7)  (  2, 42,  1)  (  2, 19, 43)
  0  0.6003E-06  0 -0.4856E-06  0 -0.4505E-06  0  0.4177E-06  0 -0.2610E-06
   (  3, 27, 12)  (  3, 34, 18)  (  2, 44,  3)  (  2, 44,  3)  (  2, 43,  2)
  0  0.1795E-06  0  0.2105E-06  0 -0.2111E-06  0  0.1432E-06  0 -0.1111E-06
   (  2, 43,  2)  (  2, 47,  6)  (  2, 47,  6)  (  2, 46,  5)  (  2, 45,  4)
  0 -0.8143E-07  0 -0.4541E-07  0  0.7204E-07  0 -0.4036E-07  0 -0.2530E-07
   (  1, 50,  7)  (  3, 43, 13)  (  1, 50,  7)  (  2, 48,  7)  (  1, 50,  7)
  0  0.2705E-07  0 -0.1838E-07  0  0.6393E-08  0  0.5577E-08  0  0.1030E-07
   (  1, 50,  7)  (  1, 50,  7)  (  1, 50,  7)  (  2,  3,  7)  (  2, 43,  2)
  1 -0.3515E-05  0  0.3183E-06  0 -0.2620E-06  0 -0.1224E-06  0  0.2470E-06
   (  1, 19, 43)  (  2, 43,  2)  (  2, 43,  2)  (  3, 41,  2)  (  3, 42,  3)
  0 -0.2390E-06  0  0.8347E-07  0 -0.5879E-07  0 -0.5764E-07  0  0.5869E-07
   (  2, 49,  8)  (  2, 19, 43)  (  2, 19, 42)  (  2, 43,  2)  (  1, 50,  7)
  0 -0.3551E-07  0 -0.3895E-07  0  0.3969E-07  0 -0.1934E-07  0 -0.1990E-07
   (  1, 50,  7)  (  2, 42,  1)  (  1, 50,  7)  (  2, 45,  4)  (  2, 47,  6)
  0  0.1365E-07  0 -0.8390E-08  0  0.8603E-08  0  0.5656E-08  1 -0.3111E-06
   (  1, 47,  4)  (  2, 49,  8)  (  2, 45,  4)  (  1, 50,  7)  (  1, 19, 43)
  0  0.1423E-06  0 -0.8304E-07  0  0.5759E-07  0 -0.3521E-07  0  0.3176E-07
   (  1, 50,  7)  (  2, 46,  5)  (  2, 45,  4)  (  2, 45,  4)  (  2, 48,  7)
  0 -0.3158E-07  0  0.1658E-07  0  0.1022E-07  0 -0.7585E-08  0 -0.7283E-08
   (  2, 48,  7)  (  2, 48,  7)  (  1, 50,  7)  (  3, 25, 10)  (  1, 50,  7)
  0  0.9585E-08  0 -0.6877E-08  1  0.2521E-07  0 -0.3216E-07  0  0.2066E-07
   (  1, 50,  7)  (  2, 44,  3)  (  2, 43,  2)  (  2, 43,  2)  (  1, 50,  7)
  0 -0.1694E-07  0  0.1501E-07  0 -0.7604E-08  0  0.6636E-08  0 -0.6778E-08
   (  1, 50,  7)  (  2, 48,  7)  (  3, 27, 10)  (  1, 50,  7)  (  2, 45,  4)
  0 -0.6148E-08  1  0.2622E-07  0 -0.2872E-07  0 -0.1390E-07  0  0.1043E-07
   (  2, 47,  6)  (  2, 47,  6)  (  1, 20, 43)  (  1, 50,  7)  (  1, 50,  7)
  0 -0.4878E-08  0  0.6433E-08  0 -0.7282E-08  0  0.8021E-08  1 -0.2839E-07
   (  3, 30, 13)  (  2, 48,  7)  (  2, 46,  5)  (  2, 45,  4)  (  2, 44,  3)
  0  0.3041E-07  0 -0.1603E-07  0  0.9999E-08  0 -0.6182E-08  0  0.7338E-08
   (  2, 43,  2)  (  2, 47,  6)  (  3, 31,  9)  (  2, 45,  4)  (  2, 42,  1)
  0 -0.7549E-08  0 -0.5384E-08  1  0.2733E-07  0 -0.2850E-07  0 -0.1159E-07
   (  2, 42,  1)  (  1, 50,  7)  (  2, 47,  6)  (  1, 20, 43)  (  1, 20, 43)
  0  0.1030E-07  0 -0.4618E-08  0  0.4736E-08  0 -0.5595E-08  0  0.7465E-08
   (  1, 50,  7)  (  2, 49,  8)  (  3, 34, 12)  (  2, 46,  5)  (  2, 45,  4)
  1 -0.3139E-07  0  0.3196E-07  0 -0.1462E-07  0  0.8122E-08  0 -0.5554E-08
   (  2, 44,  3)  (  2, 42,  1)  (  3, 37, 13)  (  3, 33, 15)  (  2, 45,  4)
  0  0.7727E-08  0 -0.6788E-08  0 -0.6346E-08  1  0.2730E-07  0 -0.2879E-07
   (  2, 42,  1)  (  2, 42,  1)  (  1, 50,  7)  (  2, 47,  6)  (  1, 20, 43)
  0 -0.1212E-07  0  0.1051E-07  0  0.4442E-08  0  0.3719E-08  0 -0.3976E-08
   (  1, 20, 43)  (  1, 50,  7)  (  2, 46,  5)  (  3, 35, 14)  (  3, 34, 11)
  0  0.7317E-08  1 -0.3429E-07  0  0.2986E-07  0  0.1529E-07  0  0.7530E-08
   (  2, 45,  4)  (  2, 44,  3)  (  1, 20, 43)  (  1, 20, 43)  (  1, 20, 43)
  0 -0.5822E-08  0  0.6715E-08  0 -0.5200E-08  0 -0.7303E-08  1  0.3379E-07
   (  2, 45,  4)  (  2, 42,  1)  (  2, 42,  1)  (  1, 50,  7)  (  1, 50,  7)
  0 -0.3118E-07  0  0.1177E-07  0 -0.1254E-07  0  0.1084E-07  0 -0.4742E-08
   (  2, 49,  8)  (  2, 48,  7)  (  2, 43,  2)  (  2, 46,  5)  (  3, 28, 11)
  0 -0.5820E-08  0  0.6255E-08  1  0.2526E-07  0  0.2841E-07  0 -0.1110E-07
   (  2, 43,  2)  (  2, 44,  3)  (  1, 20, 43)  (  1, 20, 43)  (  2, 46,  5)
  0 -0.6848E-08  0  0.1162E-07  0 -0.5519E-08  0  0.5828E-08  0 -0.6786E-08
   (  3, 30, 12)  (  2, 42,  1)  (  3, 42, 11)  (  2, 49,  8)  (  1, 50,  7)
  1  0.3077E-07  0 -0.3008E-07  0  0.1169E-07  0 -0.1206E-07  0  0.1068E-07
   (  1, 50,  7)  (  1, 50,  7)  (  2, 49,  8)  (  2, 44,  3)  (  2, 46,  5)
  0 -0.5087E-08  0 -0.5318E-08  0  0.6302E-08  1 -0.2749E-07  0  0.2896E-07
   (  3, 25,  9)  (  2, 46,  5)  (  2, 45,  4)  (  2, 45,  4)  (  1, 20, 43)
  0  0.1042E-07  0 -0.8581E-08  0  0.1198E-07  0 -0.5535E-08  0  0.5745E-08
   (  1, 20, 43)  (  2, 44,  3)  (  2, 46,  5)  (  2, 49,  8)  (  2, 49,  8)
  0 -0.6918E-08  1  0.2543E-07  0 -0.2901E-07  0 -0.1163E-07  0 -0.1144E-07
   (  1, 50,  7)  (  1, 50,  7)  (  1, 20, 43)  (  1, 20, 43)  (  2, 46,  5)
  0  0.1064E-07  0 -0.4851E-08  0 -0.5206E-08  0  0.5565E-08  1  0.2447E-07
   (  2, 46,  5)  (  3, 26, 10)  (  2, 46,  5)  (  2, 45,  4)  (  1, 20, 43)
  0  0.2983E-07  0  0.1063E-07  0 -0.8069E-08  0  0.1108E-07  0 -0.5490E-08
   (  1, 20, 43)  (  1, 20, 43)  (  2, 48,  7)  (  2, 46,  5)  (  2, 44,  3)
  0  0.3486E-08  0 -0.5796E-08  1 -0.2651E-07  0 -0.2730E-07  0  0.1133E-07
   (  2, 44,  3)  (  1, 50,  7)  (  1, 20, 43)  (  1, 20, 43)  (  2, 44,  3)
  0 -0.1088E-07  0  0.1090E-07  0 -0.4819E-08  0 -0.5483E-08  0  0.5610E-08
   (  2, 46,  5)  (  2, 46,  5)  (  3, 26, 10)  (  2, 46,  5)  (  2, 48,  7)
  1 -0.2353E-07  0  0.3074E-07  0  0.1110E-07  0 -0.8024E-08  0  0.1137E-07
   (  2, 48,  7)  (  1, 20, 43)  (  1, 20, 43)  (  2, 48,  7)  (  2, 46,  5)
  0 -0.5539E-08  0  0.3583E-08  0 -0.5816E-08  1 -0.2599E-07  0 -0.2760E-07
   (  2, 44,  3)  (  3, 40,  1)  (  1, 50,  7)  (  1, 20, 43)  (  1, 20, 43)
  0  0.1167E-07  0 -0.1111E-07  0  0.1045E-07  0 -0.4808E-08  0 -0.5957E-08
   (  2, 44,  3)  (  2, 46,  5)  (  2, 46,  5)  (  3, 26, 10)  (  2, 46,  5)
  0  0.5659E-08  1  0.2415E-07  0  0.2979E-07  0  0.1085E-07  0 -0.7697E-08
   (  2, 48,  7)  (  1, 20, 43)  (  1, 20, 43)  (  1, 20, 43)  (  2, 48,  7)
  0  0.1154E-07  0 -0.5686E-08  0  0.3591E-08  0 -0.5692E-08  1 -0.2564E-07
   (  2, 46,  5)  (  2, 44,  3)  (  2, 44,  3)  (  1, 50,  7)  (  1, 20, 43)
  0 -0.2804E-07  0  0.1253E-07  0 -0.1191E-07  0  0.1080E-07  0 -0.5241E-08
   (  1, 20, 43)  (  2, 44,  3)  (  2, 46,  5)  (  2, 46,  5)  (  3, 26, 10)
  0 -0.6568E-08  0  0.5845E-08  1  0.2510E-07  0  0.2876E-07  0  0.1060E-07
   (  2, 46,  5)  (  2, 48,  7)  (  1, 20, 43)  (  1, 20, 43)  (  1, 20, 43)
  0 -0.8443E-08  0  0.1199E-07  0 -0.5759E-08  0  0.3828E-08  0 -0.5679E-08
   (  2, 48,  7)  (  2, 46,  5)  (  2, 44,  3)  (  2, 44,  3)  (  1, 50,  7)
  1  0.2383E-07  0 -0.2953E-07  0  0.1194E-07  0 -0.1163E-07  0  0.1029E-07
   (  2, 42,  1)  (  1, 20, 43)  (  2, 44,  3)  (  2, 46,  5)  (  2, 46,  5)
  0 -0.4760E-08  0 -0.5952E-08  0  0.5829E-08  1  0.2565E-07  0  0.2855E-07
   (  3, 26, 10)  (  2, 46,  5)  (  2, 48,  7)  (  1, 20, 43)  (  1, 20, 43)
  0  0.1081E-07  0 -0.7799E-08  0  0.1150E-07  0 -0.5653E-08  0  0.3625E-08
   (  1, 20, 43)  (  2, 48,  7)  (  2, 46,  5)  (  2, 44,  3)  (  2, 44,  3)
  0 -0.5515E-08  1  0.2424E-07  0 -0.2932E-07  0  0.1201E-07  0 -0.1186E-07
   (  1, 50,  7)  (  2, 42,  1)  (  1, 20, 43)  (  2, 44,  3)  (  2, 46,  5)
  0  0.1027E-07  0 -0.4737E-08  0 -0.5928E-08  0  0.5830E-08  1  0.2488E-07
   (  2, 46,  5)  (  3, 26, 10)  (  2, 46,  5)  (  2, 48,  7)  (  1, 20, 43)
  0  0.2881E-07  0  0.1112E-07  0 -0.7748E-08  0  0.1152E-07  0 -0.5750E-08
   (  1, 20, 43)  (  1, 20, 43)  (  2, 48,  7)  (  2, 46,  5)  (  2, 44,  3)
  0  0.3745E-08  0 -0.5604E-08  1 -0.2432E-07  0 -0.2912E-07  0  0.1230E-07
   (  2, 44,  3)  (  1, 50,  7)  (  1, 20, 43)  (  1, 20, 43)  (  2, 44,  3)
  0 -0.1195E-07  0  0.1014E-07  0 -0.4756E-08  0 -0.5886E-08  0  0.5804E-08
   (  2, 46,  5)  (  2, 46,  5)  (  3, 26, 10)  (  2, 46,  5)  (  2, 48,  7)
  1  0.2479E-07  0  0.2891E-07  0  0.1108E-07  0 -0.7594E-08  0  0.1150E-07
   (  1, 20, 43)  (  1, 20, 43)  (  1, 20, 43)  (  2, 48,  7)  (  2, 46,  5)
  0 -0.5852E-08  0  0.3840E-08  0 -0.5666E-08  1  0.2568E-07  0 -0.2830E-07
   (  2, 44,  3)  (  2, 44,  3)  (  1, 50,  7)  (  2, 42,  1)  (  1, 20, 43)
  0  0.1300E-07  0 -0.1227E-07  0  0.1073E-07  0 -0.5249E-08  0 -0.6349E-08
   (  2, 44,  3)  (  2, 46,  5)  (  2, 46,  5)  (  3, 26, 10)  (  2, 46,  5)
  0  0.5875E-08  1 -0.2503E-07  0  0.2891E-07  0  0.1082E-07  0 -0.8372E-08
   (  2, 48,  7)  (  2, 48,  7)  (  1, 20, 43)  (  1, 20, 43)  (  2, 48,  7)
  0  0.1192E-07  0 -0.5892E-08  0  0.4003E-08  0 -0.5784E-08  1  0.2426E-07
   (  2, 46,  5)  (  2, 44,  3)  (  2, 44,  3)  (  1, 50,  7)  (  2, 42,  1)
  0 -0.2912E-07  0  0.1230E-07  0 -0.1173E-07  0  0.1030E-07  0 -0.4800E-08
   (  1, 20, 43)  (  2, 44,  3)  (  2, 46,  5)  (  2, 46,  5)  (  3, 26, 10)
  0 -0.5817E-08  0  0.5806E-08  1  0.2492E-07  0  0.2895E-07  0  0.1097E-07
   (  2, 46,  5)  (  2, 48,  7)  (  1, 20, 43)  (  1, 20, 43)  (  1, 20, 43)
  0 -0.7730E-08  0  0.1148E-07  0 -0.5756E-08  0  0.3736E-08  0 -0.5631E-08
   (  2, 48,  7)  (  2, 46,  5)  (  2, 44,  3)  (  2, 44,  3)  (  1, 50,  7)
  1  0.2447E-07  0 -0.2887E-07  0  0.1234E-07  0 -0.1200E-07  0  0.1024E-07
   (  2, 42,  1)  (  1, 20, 43)  (  2, 44,  3)  (  2, 46,  5)  (  2, 46,  5)
  0 -0.4761E-08  0 -0.5926E-08  0  0.5817E-08  1  0.2447E-07  0  0.2899E-07
   (  3, 26, 10)  (  2, 46,  5)  (  2, 48,  7)  (  1, 20, 43)  (  1, 20, 43)
  0  0.1120E-07  0 -0.7645E-08  0  0.1156E-07  0 -0.5843E-08  0  0.3845E-08
   (  1, 20, 43)  (  2, 48,  7)  (  2, 46,  5)  (  2, 44,  3)  (  2, 44,  3)
  0 -0.5683E-08  1  0.2439E-07  0 -0.2893E-07  0  0.1265E-07  0 -0.1221E-07
   (  1, 50,  7)  (  2, 42,  1)  (  1, 20, 43)  (  2, 44,  3)  (  2, 46,  5)
  0  0.1007E-07  0 -0.4764E-08  0 -0.5933E-08  0  0.5816E-08  1  0.2466E-07
   (  2, 46,  5)  (  3, 26, 10)  (  2, 46,  5)  (  2, 48,  7)  (  1, 20, 43)
  0  0.2885E-07  0  0.1114E-07  0 -0.7479E-08  0  0.1155E-07  0 -0.5947E-08
   (  1, 20, 43)  (  1, 20, 43)  (  2, 48,  7)  (  2, 46,  5)  (  2, 44,  3)
  0  0.3958E-08  0 -0.5718E-08  1  0.2456E-07  0 -0.2893E-07  0  0.1301E-07
   (  2, 44,  3)  (  1, 50,  7)  (  2, 42,  1)  (  1, 20, 43)  (  2, 44,  3)
  0 -0.1247E-07  0  0.9990E-08  0 -0.4755E-08  0 -0.5914E-08  0  0.5830E-08
   (  2, 46,  5)  (  2, 46,  5)  (  3, 26, 10)  (  2, 46,  5)  (  2, 48,  7)
  1  0.2452E-07  0  0.2888E-07  0  0.1120E-07  0 -0.7335E-08  0  0.1154E-07
   (  1, 20, 43)  (  1, 20, 43)  (  1, 20, 43)  (  2, 48,  7)  (  2, 46,  5)
  0 -0.6030E-08  0  0.4061E-08  0 -0.5766E-08  1  0.2593E-07  0 -0.2816E-07
   (  2, 44,  3)  (  2, 44,  3)  (  1, 50,  7)  (  2, 42,  1)  (  1, 20, 43)
  0  0.1371E-07  0 -0.1282E-07  0  0.1052E-07  0 -0.5236E-08  0 -0.6394E-08
   (  2, 44,  3)  (  2, 46,  5)  (  2, 46,  5)  (  3, 26, 10)  (  2, 46,  5)
  0  0.5903E-08  1 -0.2505E-07  0  0.2884E-07  0  0.1094E-07  0 -0.8096E-08
   (  2, 48,  7)  (  2, 48,  7)  (  1, 20, 43)  (  1, 20, 43)  (  2, 48,  7)
  0  0.1198E-07  0 -0.6094E-08  0  0.4218E-08  0 -0.5870E-08  1  0.2446E-07
   (  2, 46,  5)  (  2, 44,  3)  (  2, 44,  3)  (  1, 50,  7)  (  2, 42,  1)
  0 -0.2900E-07  0  0.1296E-07  0 -0.1229E-07  0  0.1014E-07  0 -0.4791E-08
   (  1, 20, 43)  (  2, 44,  3)  (  2, 46,  5)  (  2, 46,  5)  (  3, 26, 10)
  0 -0.5853E-08  0  0.5833E-08
   (  2, 46,  5)  (  2, 48,  7)

 MAXIMUM RESIDUAL FOR EACH ITERATION (1 INDICATES THE FIRST INNER ITERATION):

    RESIDUAL       RESIDUAL       RESIDUAL       RESIDUAL       RESIDUAL    
   LAYER,ROW,COL  LAYER,ROW,COL  LAYER,ROW,COL  LAYER,ROW,COL  LAYER,ROW,COL
 ---------------------------------------------------------------------------
  1   6722.      0   6200.      0   5239.      0   3997.      0   2994.    
   (  1, 19, 43)  (  1, 19, 43)  (  1, 19, 43)  (  1, 19, 43)  (  1, 19, 43)
  0   2220.      0   1434.      0   839.5      0  -466.7      0  -384.1    
   (  1, 19, 43)  (  1, 19, 43)  (  1, 19, 43)  (  2, 19, 43)  (  2, 19, 43)
  0   300.2      0   233.1      0   174.6      0   135.2      0   103.6    
   (  2, 18, 43)  (  2, 19, 42)  (  2, 19, 42)  (  2, 19, 42)  (  2, 18, 43)
  0   66.85      0   52.30      0   41.00      0   30.40      0   24.08    
   (  1, 20, 42)  (  1, 20, 42)  (  1, 20, 42)  (  1, 18, 44)  (  1, 18, 44)
  0   20.10      0   14.58      0   10.74      0   8.270      0   7.109    
   (  1, 18, 44)  (  1, 18, 44)  (  1, 18, 44)  (  3, 18, 42)  (  3, 18, 42)
  0   6.442      0   5.356      0   4.440      0   3.046      0   1.949    
   (  3, 18, 42)  (  3, 18, 42)  (  3, 18, 42)  (  3, 18, 42)  (  3, 18, 42)
  1   1278.      0   932.2      0   520.6      0   259.8      0   240.4    
   (  1, 19, 43)  (  1, 19, 43)  (  1, 19, 43)  (  1, 28, 26)  (  1, 28, 26)
  0   205.1      0  -164.0      0  -118.1      0  -84.45      0  -57.60    
   (  1, 28, 26)  (  2, 19, 43)  (  2, 19, 43)  (  2, 19, 43)  (  2, 19, 43)
  0  -51.01      0  -43.74      0  -34.78      0  -28.56      0  -21.20    
   (  1, 19, 43)  (  1, 19, 43)  (  1, 19, 43)  (  1, 19, 43)  (  1, 19, 43)
  0  -15.16      0  -12.47      0  -8.810      0  -5.840      0   4.527    
   (  1, 19, 43)  (  1, 19, 43)  (  1, 19, 43)  (  1, 19, 43)  (  1, 24, 27)
  0   3.988      0   3.264      0   2.495      0   1.758      0  -1.251    
   (  2, 19, 43)  (  2, 19, 43)  (  2, 19, 43)  (  2, 19, 43)  (  1, 27, 20)
  0  -1.027      0 -0.8217      0 -0.6474      0 -0.5353      0 -0.4204    
   (  1, 27, 20)  (  1, 27, 20)  (  1, 27, 20)  (  1, 27, 20)  (  1, 27, 20)
  1   289.9      0   230.7      0   192.9      0   155.8      0  -123.9    
   (  1, 26, 20)  (  1, 24, 24)  (  1, 24, 24)  (  1, 24, 24)  (  1, 28, 25)
  0  -101.3      0   80.91      0   66.16      0   47.43      0   36.76    
   (  1, 28, 25)  (  2, 27, 28)  (  2, 27, 28)  (  2, 27, 28)  (  2, 27, 28)
  0   26.70      0   21.88      0   17.67      0   15.15      0   12.20    
   (  1, 26, 20)  (  1, 26, 20)  (  1, 26, 20)  (  1, 26, 20)  (  1, 26, 20)
  0   9.721      0   8.689      0   7.330      0   5.879      0   4.189    
   (  1, 26, 20)  (  1, 26, 20)  (  1, 26, 20)  (  1, 26, 20)  (  1, 26, 20)
  0   3.234      0   2.526      0   1.960      0   1.624      0   1.418    
   (  1, 26, 20)  (  1, 26, 20)  (  1, 26, 20)  (  1, 27, 20)  (  1, 27, 20)
  0   1.243      0  0.9739      0  0.7342      0  0.6171      0  0.5276    
   (  1, 27, 20)  (  1, 27, 20)  (  1, 27, 20)  (  1, 27, 20)  (  1, 27, 20)
  1   81.14      0   50.44      0   29.13      0  -22.11      0  -20.39    
   (  1, 26, 28)  (  1, 26, 28)  (  1, 26, 28)  (  1, 25, 28)  (  1, 25, 28)
  0  -16.52      0  -12.49      0   9.746      0   7.944      0   6.363    
   (  1, 25, 28)  (  1, 25, 28)  (  1, 27, 27)  (  1, 27, 27)  (  1, 27, 27)
  0   5.174      0   4.129      0   3.268      0   2.601      0   1.991    
   (  1, 27, 27)  (  1, 27, 27)  (  1, 27, 27)  (  1, 27, 27)  (  1, 27, 27)
  0   1.527      0   1.146      0  0.9102      0  0.6923      0  0.4683    
   (  1, 27, 27)  (  1, 27, 27)  (  1, 27, 27)  (  1, 27, 27)  (  1, 27, 27)
  0  0.3118      0  0.2088      0  0.1584      0  0.1234      0  0.9241E-01
   (  1, 27, 27)  (  3, 24, 29)  (  3, 24, 28)  (  3, 24, 28)  (  3, 24, 28)
  0  0.6477E-01  0  0.5773E-01  0  0.4584E-01  0  0.3610E-01  0  0.3290E-01
   (  1, 25, 28)  (  1, 25, 28)  (  1, 50, 20)  (  1, 50, 20)  (  1, 50, 20)
  1   38.91      0   30.12      0   18.63      0   12.03      0   9.278    
   (  1, 27, 27)  (  1, 27, 27)  (  1, 27, 27)  (  1, 27, 27)  (  1, 27, 27)
  0   6.698      0   4.494      0   2.968      0  -2.354      0  -1.677    
   (  1, 27, 27)  (  1, 27, 27)  (  1, 27, 27)  (  2, 19, 43)  (  2, 19, 43)
  0  -1.117      0  0.8884      0  0.7166      0  0.6067      0  0.4880    
   (  2, 19, 43)  (  1, 26, 28)  (  1, 26, 28)  (  1, 26, 28)  (  1, 26, 28)
  0  0.4335      0  0.3462      0  0.2688      0  0.1926      0  0.1414    
   (  1, 26, 28)  (  1, 26, 28)  (  1, 26, 28)  (  1, 26, 28)  (  1, 26, 28)
  0  0.1072      0  0.8224E-01  0  0.6192E-01  0  0.4719E-01  0  0.3414E-01
   (  1, 26, 28)  (  1, 26, 28)  (  1, 26, 28)  (  1, 26, 28)  (  1, 26, 28)
  0  0.2660E-01  0  0.2030E-01  0  0.1688E-01  0  0.1192E-01  0  0.8351E-02
   (  1, 26, 28)  (  1, 26, 28)  (  1, 26, 28)  (  1, 26, 28)  (  1, 26, 28)
  1   4.376      0   2.691      0   2.081      0   1.577      0  -1.235    
   (  1, 19, 43)  (  1, 19, 43)  (  1, 19, 43)  (  1, 19, 43)  (  2, 19, 43)
  0  -1.035      0 -0.8416      0 -0.5925      0 -0.4589      0 -0.2929    
   (  2, 19, 43)  (  2, 19, 43)  (  2, 19, 43)  (  2, 19, 43)  (  2, 19, 43)
  0  0.2144      0  0.1561      0  0.1062      0  0.8714E-01  0  0.6658E-01
   (  2, 19, 42)  (  2, 19, 42)  (  2, 19, 42)  (  3, 19, 43)  (  3, 19, 43)
  0  0.4902E-01  0  0.3920E-01  0  0.3602E-01  0  0.2956E-01  0  0.2389E-01
   (  3, 19, 43)  (  1, 20, 42)  (  1, 20, 42)  (  1, 20, 42)  (  1, 20, 42)
  0  0.1873E-01  0  0.1474E-01  0  0.1088E-01  0  0.7594E-02  0  0.6092E-02
   (  1, 20, 42)  (  1, 20, 42)  (  1, 18, 44)  (  3, 18, 42)  (  3, 18, 42)
  0  0.4708E-02  0  0.3242E-02  0  0.2230E-02  0  0.1469E-02  0  0.1084E-02
   (  3, 18, 42)  (  3, 18, 42)  (  3, 18, 42)  (  3, 18, 42)  (  1, 21, 41)
  1   1.215      0  0.5080      0  0.3995      0 -0.3051      0 -0.2628    
   (  1, 19, 43)  (  1, 19, 43)  (  1, 19, 43)  (  2, 19, 43)  (  2, 19, 43)
  0 -0.2184      0 -0.1603      0 -0.1158      0 -0.8440E-01  0  0.6106E-01
   (  2, 19, 43)  (  2, 19, 43)  (  2, 19, 43)  (  2, 19, 43)  (  2, 19, 42)
  0  0.4207E-01  0  0.3093E-01  0 -0.2107E-01  0  0.1634E-01  0  0.1302E-01
   (  2, 19, 42)  (  2, 18, 43)  (  3, 20, 42)  (  3, 19, 43)  (  3, 19, 43)
  0  0.1042E-01  0  0.9550E-02  0  0.8047E-02  0  0.6438E-02  0  0.4998E-02
   (  1, 20, 42)  (  1, 20, 42)  (  1, 20, 42)  (  1, 20, 42)  (  1, 20, 42)
  0  0.3812E-02  0  0.2947E-02  0  0.1978E-02  0  0.1457E-02  0  0.1103E-02
   (  1, 20, 42)  (  1, 18, 44)  (  1, 18, 44)  (  3, 18, 42)  (  3, 18, 42)
  0  0.7168E-03  0  0.5103E-03  0  0.4073E-03  0  0.3127E-03  0  0.2773E-03
   (  3, 18, 42)  (  3, 18, 42)  (  3, 18, 42)  (  1, 21, 41)  (  1, 21, 41)
  1  0.1206      0  0.9488E-01  0  0.7296E-01  0 -0.6202E-01  0 -0.5097E-01
   (  1, 19, 43)  (  1, 19, 43)  (  1, 19, 43)  (  2, 19, 43)  (  2, 19, 43)
  0 -0.4150E-01  0 -0.3001E-01  0 -0.2117E-01  0 -0.1555E-01  0  0.1105E-01
   (  2, 19, 43)  (  2, 19, 43)  (  2, 19, 43)  (  2, 19, 43)  (  2, 19, 42)
  0  0.8014E-02  0  0.5586E-02  0  0.3976E-02  0  0.3083E-02  0  0.2392E-02
   (  2, 19, 42)  (  2, 19, 42)  (  3, 19, 43)  (  3, 19, 43)  (  1, 20, 42)
  0  0.2084E-02  0  0.1815E-02  0  0.1609E-02  0  0.1295E-02  0  0.1010E-02
   (  1, 20, 42)  (  1, 20, 42)  (  1, 20, 42)  (  1, 20, 42)  (  1, 20, 42)
  0  0.7485E-03  0  0.5585E-03  0  0.3771E-03  0  0.2629E-03  0  0.2036E-03
   (  1, 20, 42)  (  1, 18, 44)  (  3, 18, 42)  (  3, 18, 42)  (  3, 18, 42)
  0  0.1423E-03  0  0.1110E-03  0  0.8350E-04  0  0.6334E-04  0  0.4974E-04
   (  3, 18, 42)  (  3, 18, 42)  (  3, 18, 42)  (  1, 21, 41)  (  1, 21, 41)
  1  0.2160E-01  0  0.1829E-01  0  0.1476E-01  0 -0.1241E-01  0 -0.1047E-01
   (  1, 19, 43)  (  1, 19, 43)  (  1, 19, 43)  (  2, 19, 43)  (  2, 19, 43)
  0 -0.8115E-02  0 -0.5499E-02  0 -0.4227E-02  0  0.2873E-02  0  0.2141E-02
   (  2, 19, 43)  (  2, 19, 43)  (  2, 19, 43)  (  2, 18, 43)  (  2, 19, 42)
  0  0.1580E-02  0 -0.1056E-02  0  0.8124E-03  0  0.6080E-03  0  0.4820E-03
   (  2, 18, 43)  (  3, 18, 44)  (  3, 19, 43)  (  3, 19, 43)  (  1, 20, 42)
  0  0.4098E-03  0  0.3519E-03  0  0.2974E-03  0  0.2663E-03  0  0.2134E-03
   (  1, 20, 42)  (  1, 20, 42)  (  1, 20, 42)  (  1, 20, 42)  (  1, 20, 42)
  0  0.1623E-03  0  0.1223E-03  0  0.8466E-04  0  0.6460E-04  0  0.4661E-04
   (  1, 20, 42)  (  1, 18, 44)  (  1, 18, 44)  (  3, 18, 42)  (  3, 18, 42)
  0  0.3146E-04  0  0.2116E-04  0  0.1750E-04  0  0.1289E-04  0  0.1036E-04
   (  3, 18, 42)  (  3, 18, 42)  (  3, 18, 42)  (  1, 21, 41)  (  1, 21, 41)
  1  0.4680E-02  0  0.3597E-02  0  0.3064E-02  0 -0.2651E-02  0 -0.2018E-02
   (  1, 19, 43)  (  1, 19, 43)  (  1, 19, 43)  (  2, 19, 43)  (  2, 19, 43)
  0 -0.1520E-02  0 -0.1126E-02  0 -0.8171E-03  0  0.5707E-03  0  0.4181E-03
   (  2, 19, 43)  (  2, 19, 43)  (  2, 19, 43)  (  2, 19, 42)  (  2, 19, 42)
  0  0.2941E-03  0 -0.2176E-03  0  0.1716E-03  0  0.1282E-03  0  0.1026E-03
   (  2, 19, 42)  (  3, 18, 44)  (  3, 19, 43)  (  3, 19, 43)  (  1, 20, 42)
  0  0.8843E-04  0  0.7336E-04  0  0.6614E-04  0  0.5488E-04  0  0.4412E-04
   (  1, 20, 42)  (  1, 20, 42)  (  1, 20, 42)  (  1, 20, 42)  (  1, 20, 42)
  0  0.3314E-04  0  0.2539E-04  0  0.1752E-04  0  0.1224E-04  0  0.9129E-05
   (  1, 20, 42)  (  1, 18, 44)  (  1, 18, 44)  (  3, 18, 42)  (  3, 18, 42)
  1  0.8584E-03  0  0.6789E-03  0 -0.5493E-03  0 -0.4426E-03  0 -0.3737E-03
   (  1, 19, 43)  (  1, 19, 43)  (  2, 19, 43)  (  2, 19, 43)  (  2, 19, 43)
  0 -0.2850E-03  0 -0.1912E-03  0 -0.1294E-03  0  0.9894E-04  0  0.7399E-04
   (  2, 19, 43)  (  2, 19, 43)  (  2, 19, 43)  (  2, 18, 43)  (  2, 18, 43)
  0  0.5278E-04  0  0.3868E-04  0  0.2960E-04  0  0.2293E-04  0  0.1891E-04
   (  2, 18, 43)  (  3, 19, 43)  (  3, 19, 43)  (  3, 19, 43)  (  1, 20, 42)
  0  0.1631E-04  0  0.1365E-04  0  0.1098E-04  0  0.9334E-05  1  0.2272E-03
   (  1, 20, 42)  (  1, 20, 42)  (  1, 20, 42)  (  1, 20, 42)  (  1, 19, 43)
  0  0.1657E-03  0  0.1234E-03  0  0.9384E-04  0  0.6751E-04  0 -0.4980E-04
   (  1, 19, 43)  (  1, 19, 43)  (  1, 19, 43)  (  1, 19, 43)  (  2, 19, 43)
  0 -0.4052E-04  0  0.3194E-04  0  0.2507E-04  0  0.1982E-04  0  0.1410E-04
   (  2, 19, 43)  (  2, 18, 43)  (  2, 18, 43)  (  2, 18, 43)  (  2, 18, 43)
  0  0.1018E-04  0  0.7534E-05  1 -0.7093E-04  0 -0.4990E-04  0 -0.3937E-04
   (  2, 18, 43)  (  2, 19, 42)  (  1, 20, 43)  (  1, 20, 43)  (  1, 20, 43)
  0 -0.3049E-04  0 -0.2395E-04  0 -0.1808E-04  0 -0.1277E-04  0  0.1010E-04
   (  1, 20, 43)  (  1, 20, 43)  (  1, 20, 43)  (  1, 20, 43)  (  2, 20, 43)
  0  0.7669E-05  1  0.6314E-04  0  0.4212E-04  0  0.2962E-04  0  0.2164E-04
   (  2, 20, 43)  (  1, 20, 43)  (  1, 20, 43)  (  1, 20, 43)  (  1, 20, 43)
  0  0.1820E-04  0  0.1517E-04  0  0.1193E-04  0  0.8520E-05  1 -0.6236E-04
   (  1, 20, 43)  (  1, 20, 43)  (  1, 20, 43)  (  1, 20, 43)  (  1, 20, 43)
  0 -0.4422E-04  0 -0.3383E-04  0 -0.2526E-04  0 -0.2101E-04  0 -0.1680E-04
   (  1, 20, 43)  (  1, 20, 43)  (  1, 20, 43)  (  1, 20, 43)  (  1, 20, 43)
  0 -0.1151E-04  0 -0.8454E-05  1  0.5835E-04  0  0.3742E-04  0  0.2632E-04
   (  1, 20, 43)  (  1, 20, 43)  (  1, 20, 43)  (  1, 20, 43)  (  1, 20, 43)
  0  0.2155E-04  0  0.1778E-04  0  0.1324E-04  0  0.1061E-04  0  0.7944E-05
   (  1, 20, 43)  (  1, 20, 43)  (  1, 20, 43)  (  1, 20, 43)  (  1, 20, 43)
  1 -0.6396E-04  0 -0.4329E-04  0 -0.3244E-04  0 -0.2479E-04  0 -0.2060E-04
   (  1, 20, 43)  (  1, 20, 43)  (  1, 20, 43)  (  1, 20, 43)  (  1, 20, 43)
  0 -0.1619E-04  0 -0.1128E-04  0 -0.8219E-05  1  0.5869E-04  0  0.3757E-04
   (  1, 20, 43)  (  1, 20, 43)  (  1, 20, 43)  (  1, 20, 43)  (  1, 20, 43)
  0  0.2601E-04  0  0.2151E-04  0  0.1763E-04  0  0.1290E-04  0  0.1010E-04
   (  1, 20, 43)  (  1, 20, 43)  (  1, 20, 43)  (  1, 20, 43)  (  1, 20, 43)
  0  0.7684E-05  1 -0.6720E-04  0 -0.4609E-04  0 -0.3390E-04  0 -0.2596E-04
   (  1, 20, 43)  (  1, 20, 43)  (  1, 20, 43)  (  1, 20, 43)  (  1, 20, 43)
  0 -0.2131E-04  0 -0.1669E-04  0 -0.1173E-04  0 -0.8728E-05  1  0.6042E-04
   (  1, 20, 43)  (  1, 20, 43)  (  1, 20, 43)  (  1, 20, 43)  (  1, 20, 43)
  0  0.3894E-04  0  0.2900E-04  0  0.2424E-04  0  0.2095E-04  0  0.1665E-04
   (  1, 20, 43)  (  1, 20, 43)  (  1, 20, 43)  (  1, 20, 43)  (  1, 20, 43)
  0  0.1207E-04  0  0.8880E-05  1 -0.5791E-04  0 -0.3714E-04  0 -0.2702E-04
   (  1, 20, 43)  (  1, 20, 43)  (  1, 20, 43)  (  1, 20, 43)  (  1, 20, 43)
  0 -0.2265E-04  0 -0.1951E-04  0 -0.1622E-04  0 -0.1117E-04  0 -0.8409E-05
   (  1, 20, 43)  (  1, 20, 43)  (  1, 20, 43)  (  1, 20, 43)  (  1, 20, 43)
  1  0.5890E-04  0  0.3705E-04  0  0.2755E-04  0  0.2336E-04  0  0.2008E-04
   (  1, 20, 43)  (  1, 20, 43)  (  1, 20, 43)  (  1, 20, 43)  (  1, 20, 43)
  0  0.1559E-04  0  0.1117E-04  0  0.8308E-05  1 -0.5833E-04  0 -0.3714E-04
   (  1, 20, 43)  (  1, 20, 43)  (  1, 20, 43)  (  1, 20, 43)  (  1, 20, 43)
  0 -0.2717E-04  0 -0.2272E-04  0 -0.1981E-04  0 -0.1599E-04  0 -0.1137E-04
   (  1, 20, 43)  (  1, 20, 43)  (  1, 20, 43)  (  1, 20, 43)  (  1, 20, 43)
  0 -0.8622E-05  1  0.5931E-04  0  0.3819E-04  0  0.2764E-04  0  0.2364E-04
   (  1, 20, 43)  (  1, 20, 43)  (  1, 20, 43)  (  1, 20, 43)  (  1, 20, 43)
  0  0.2029E-04  0  0.1626E-04  0  0.1128E-04  0  0.8639E-05  1 -0.5859E-04
   (  1, 20, 43)  (  1, 20, 43)  (  1, 20, 43)  (  1, 20, 43)  (  1, 20, 43)
  0 -0.3696E-04  0 -0.2686E-04  0 -0.2259E-04  0 -0.1970E-04  0 -0.1553E-04
   (  1, 20, 43)  (  1, 20, 43)  (  1, 20, 43)  (  1, 20, 43)  (  1, 20, 43)
  0 -0.1131E-04  0 -0.8490E-05  1  0.5732E-04  0  0.3731E-04  0  0.2728E-04
   (  1, 20, 43)  (  1, 20, 43)  (  1, 20, 43)  (  1, 20, 43)  (  1, 20, 43)
  0  0.2345E-04  0  0.2008E-04  0  0.1590E-04  0  0.1124E-04  0  0.8530E-05
   (  1, 20, 43)  (  1, 20, 43)  (  1, 20, 43)  (  1, 20, 43)  (  1, 20, 43)
  1 -0.5985E-04  0 -0.3760E-04  0 -0.2724E-04  0 -0.2269E-04  0 -0.1978E-04
   (  1, 20, 43)  (  1, 20, 43)  (  1, 20, 43)  (  1, 20, 43)  (  1, 20, 43)
  0 -0.1596E-04  0 -0.1146E-04  0 -0.8692E-05  1  0.5752E-04  0  0.3741E-04
   (  1, 20, 43)  (  1, 20, 43)  (  1, 20, 43)  (  1, 20, 43)  (  1, 20, 43)
  0  0.2731E-04  0  0.2349E-04  0  0.2022E-04  0  0.1578E-04  0  0.1123E-04
   (  1, 20, 43)  (  1, 20, 43)  (  1, 20, 43)  (  1, 20, 43)  (  1, 20, 43)
  0  0.8514E-05  1 -0.5893E-04  0 -0.3724E-04  0 -0.2704E-04  0 -0.2257E-04
   (  1, 20, 43)  (  1, 20, 43)  (  1, 20, 43)  (  1, 20, 43)  (  1, 20, 43)
  0 -0.1959E-04  0 -0.1591E-04  0 -0.1135E-04  0 -0.8648E-05  1  0.5782E-04
   (  1, 20, 43)  (  1, 20, 43)  (  1, 20, 43)  (  1, 20, 43)  (  1, 20, 43)
  0  0.3741E-04  0  0.2755E-04  0  0.2358E-04  0  0.2020E-04  0  0.1558E-04
   (  1, 20, 43)  (  1, 20, 43)  (  1, 20, 43)  (  1, 20, 43)  (  1, 20, 43)
  0  0.1112E-04  0  0.8440E-05  1 -0.5829E-04  0 -0.3720E-04  0 -0.2714E-04
   (  1, 20, 43)  (  1, 20, 43)  (  1, 20, 43)  (  1, 20, 43)  (  1, 20, 43)
  0 -0.2277E-04  0 -0.1981E-04  0 -0.1601E-04  0 -0.1136E-04  0 -0.8687E-05
   (  1, 20, 43)  (  1, 20, 43)  (  1, 20, 43)  (  1, 20, 43)  (  1, 20, 43)
  1  0.5928E-04  0  0.3790E-04  0  0.2764E-04  0  0.2361E-04  0  0.2036E-04
   (  1, 20, 43)  (  1, 20, 43)  (  1, 20, 43)  (  1, 20, 43)  (  1, 20, 43)
  0  0.1601E-04  0  0.1134E-04  0  0.8618E-05  1 -0.5784E-04  0 -0.3699E-04
   (  1, 20, 43)  (  1, 20, 43)  (  1, 20, 43)  (  1, 20, 43)  (  1, 20, 43)
  0 -0.2677E-04  0 -0.2254E-04  0 -0.1954E-04  0 -0.1571E-04  0 -0.1124E-04
   (  1, 20, 43)  (  1, 20, 43)  (  1, 20, 43)  (  1, 20, 43)  (  1, 20, 43)
  0 -0.8558E-05  1  0.5891E-04  0  0.3765E-04  0  0.2770E-04  0  0.2363E-04
   (  1, 20, 43)  (  1, 20, 43)  (  1, 20, 43)  (  1, 20, 43)  (  1, 20, 43)
  0  0.2030E-04  0  0.1598E-04  0  0.1142E-04  0  0.8648E-05  1 -0.5834E-04
   (  1, 20, 43)  (  1, 20, 43)  (  1, 20, 43)  (  1, 20, 43)  (  1, 20, 43)
  0 -0.3736E-04  0 -0.2692E-04  0 -0.2259E-04  0 -0.1958E-04  0 -0.1582E-04
   (  1, 20, 43)  (  1, 20, 43)  (  1, 20, 43)  (  1, 20, 43)  (  1, 20, 43)
  0 -0.1130E-04  0 -0.8620E-05  1  0.5872E-04  0  0.3760E-04  0  0.2771E-04
   (  1, 20, 43)  (  1, 20, 43)  (  1, 20, 43)  (  1, 20, 43)  (  1, 20, 43)
  0  0.2366E-04  0  0.2031E-04  0  0.1596E-04  0  0.1139E-04  0  0.8639E-05
   (  1, 20, 43)  (  1, 20, 43)  (  1, 20, 43)  (  1, 20, 43)  (  1, 20, 43)
  1 -0.5839E-04  0 -0.3734E-04  0 -0.2693E-04  0 -0.2258E-04  0 -0.1954E-04
   (  1, 20, 43)  (  1, 20, 43)  (  1, 20, 43)  (  1, 20, 43)  (  1, 20, 43)
  0 -0.1579E-04  0 -0.1132E-04  0 -0.8623E-05  1  0.5795E-04  0  0.3734E-04
   (  1, 20, 43)  (  1, 20, 43)  (  1, 20, 43)  (  1, 20, 43)  (  1, 20, 43)
  0  0.2770E-04  0  0.2367E-04  0  0.2018E-04  0  0.1568E-04  0  0.1116E-04
   (  1, 20, 43)  (  1, 20, 43)  (  1, 20, 43)  (  1, 20, 43)  (  1, 20, 43)
  0  0.8486E-05  1 -0.5856E-04  0 -0.3743E-04  0 -0.2719E-04  0 -0.2281E-04
   (  1, 20, 43)  (  1, 20, 43)  (  1, 20, 43)  (  1, 20, 43)  (  1, 20, 43)
  0 -0.1982E-04  0 -0.1599E-04  0 -0.1141E-04  0 -0.8716E-05  1  0.5894E-04
   (  1, 20, 43)  (  1, 20, 43)  (  1, 20, 43)  (  1, 20, 43)  (  1, 20, 43)
  0  0.3782E-04  0  0.2768E-04  0  0.2365E-04  0  0.2033E-04  0  0.1602E-04
   (  1, 20, 43)  (  1, 20, 43)  (  1, 20, 43)  (  1, 20, 43)  (  1, 20, 43)
  0  0.1134E-04  0  0.8637E-05  1 -0.5831E-04  0 -0.3724E-04  0 -0.2692E-04
   (  1, 20, 43)  (  1, 20, 43)  (  1, 20, 43)  (  1, 20, 43)  (  1, 20, 43)
  0 -0.2260E-04  0 -0.1956E-04  0 -0.1577E-04  0 -0.1133E-04  0 -0.8632E-05
   (  1, 20, 43)  (  1, 20, 43)  (  1, 20, 43)  (  1, 20, 43)  (  1, 20, 43)
  1  0.5863E-04  0  0.3769E-04  0  0.2778E-04  0  0.2368E-04  0  0.2032E-04
   (  1, 20, 43)  (  1, 20, 43)  (  1, 20, 43)  (  1, 20, 43)  (  1, 20, 43)
  0  0.1597E-04  0  0.1144E-04  0  0.8670E-05  1 -0.5860E-04  0 -0.3752E-04
   (  1, 20, 43)  (  1, 20, 43)  (  1, 20, 43)  (  1, 20, 43)  (  1, 20, 43)
  0 -0.2705E-04  0 -0.2263E-04  0 -0.1957E-04  0 -0.1588E-04  0 -0.1138E-04
   (  1, 20, 43)  (  1, 20, 43)  (  1, 20, 43)  (  1, 20, 43)  (  1, 20, 43)
  0 -0.8691E-05  1  0.5869E-04  0  0.3774E-04  0  0.2787E-04  0  0.2374E-04
   (  1, 20, 43)  (  1, 20, 43)  (  1, 20, 43)  (  1, 20, 43)  (  1, 20, 43)
  0  0.2035E-04  0  0.1597E-04  0  0.1145E-04  0  0.8682E-05  1 -0.5845E-04
   (  1, 20, 43)  (  1, 20, 43)  (  1, 20, 43)  (  1, 20, 43)  (  1, 20, 43)
  0 -0.3746E-04  0 -0.2702E-04  0 -0.2260E-04  0 -0.1951E-04  0 -0.1583E-04
   (  1, 20, 43)  (  1, 20, 43)  (  1, 20, 43)  (  1, 20, 43)  (  1, 20, 43)
  0 -0.1139E-04  0 -0.8683E-05  1  0.5878E-04  0  0.3783E-04  0  0.2800E-04
   (  1, 20, 43)  (  1, 20, 43)  (  1, 20, 43)  (  1, 20, 43)  (  1, 20, 43)
  0  0.2379E-04  0  0.2036E-04  0  0.1601E-04  0  0.1147E-04  0  0.8710E-05
   (  1, 20, 43)  (  1, 20, 43)  (  1, 20, 43)  (  1, 20, 43)  (  1, 20, 43)
  1 -0.5852E-04  0 -0.3753E-04  0 -0.2705E-04  0 -0.2261E-04  0 -0.1948E-04
   (  1, 20, 43)  (  1, 20, 43)  (  1, 20, 43)  (  1, 20, 43)  (  1, 20, 43)
  0 -0.1582E-04  0 -0.1141E-04  0 -0.8698E-05  1  0.5799E-04  0  0.3752E-04
   (  1, 20, 43)  (  1, 20, 43)  (  1, 20, 43)  (  1, 20, 43)  (  1, 20, 43)
  0  0.2798E-04  0  0.2379E-04  0  0.2023E-04  0  0.1572E-04  0  0.1123E-04
   (  1, 20, 43)  (  1, 20, 43)  (  1, 20, 43)  (  1, 20, 43)  (  1, 20, 43)
  0  0.8540E-05  1 -0.5865E-04  0 -0.3759E-04  0 -0.2729E-04  0 -0.2283E-04
   (  1, 20, 43)  (  1, 20, 43)  (  1, 20, 43)  (  1, 20, 43)  (  1, 20, 43)
  0 -0.1976E-04  0 -0.1602E-04  0 -0.1149E-04  0 -0.8779E-05  1  0.5900E-04
   (  1, 20, 43)  (  1, 20, 43)  (  1, 20, 43)  (  1, 20, 43)  (  1, 20, 43)
  0  0.3800E-04  0  0.2796E-04  0  0.2379E-04  0  0.2039E-04  0  0.1606E-04
   (  1, 20, 43)  (  1, 20, 43)  (  1, 20, 43)  (  1, 20, 43)  (  1, 20, 43)
  0  0.1143E-04  0  0.8710E-05
   (  1, 20, 43)  (  1, 20, 43)



 OUTPUT CONTROL FOR STRESS PERIOD    1   TIME STEP    1
    SAVE HEAD FOR ALL LAYERS
    SAVE DRAWDOWN FOR ALL LAYERS
    SAVE BUDGET
    PRINT HEAD FOR ALL LAYERS
    PRINT BUDGET
 UBDSV2 SAVING "   CONSTANT HEAD" ON UNIT  53 AT TIME STEP  1, STRESS PERIOD   1
 UBDSV1 SAVING "FLOW RIGHT FACE " ON UNIT  53 AT TIME STEP  1, STRESS PERIOD   1
 UBDSV1 SAVING "FLOW FRONT FACE " ON UNIT  53 AT TIME STEP  1, STRESS PERIOD   1
 UBDSV1 SAVING "FLOW LOWER FACE " ON UNIT  53 AT TIME STEP  1, STRESS PERIOD   1
 UBDSV3 SAVING "              ET" ON UNIT  53 AT TIME STEP  1, STRESS PERIOD   1
 UBDSV4 SAVING "  STREAM LEAKAGE" ON UNIT  53 AT TIME STEP  1, STRESS PERIOD   1
 UBDSV4 SAVING "STREAM FLOW OUT " ON UNIT  53 AT TIME STEP  1, STRESS PERIOD   1

         ****FAILED TO MEET SOLVER CONVERGENCE CRITERIA IN TIME STEP    1 OF STRESS PERIOD    1****
1
              HEAD IN LAYER   1 AT END OF TIME STEP   1 IN STRESS PERIOD    1
  ---------------------------------------------------------------------------

            1           2           3           4           5           6           7           8           9          10
           11          12          13          14          15          16          17          18          19          20
           21          22          23          24          25          26          27          28          29          30
           31          32          33          34          35          36          37          38          39          40
           41          42          43          44          45          46          47          48          49          50
 ........................................................................................................................
   1   -1000.      -1000.      -1000.      -1000.      -1000.      -1000.       82.05       81.94       81.77       81.56    
        81.31       81.12       80.89       80.62       80.32       79.99       79.65       79.32       78.98       78.64    
        78.30       77.96       77.61       77.27       76.93       76.59       76.25       75.91       75.58       75.24    
        74.92       74.59       74.27       73.96       73.65       73.35       73.06       72.78       72.50       72.23    
        71.98       71.73       71.49       71.26       71.04       70.82       70.61       70.41       70.20       70.00    
   2   -1000.      -1000.      -1000.      -1000.      -1000.       82.23       82.11       81.96       81.77       81.54    
        81.35       81.14       80.90       80.62       80.32       79.99       79.65       79.32       78.98       78.64    
        78.30       77.95       77.61       77.27       76.93       76.59       76.25       75.91       75.57       75.24    
        74.91       74.59       74.27       73.95       73.64       73.34       73.05       72.77       72.49       72.22    
        71.97       71.72       71.48       71.25       71.03       70.81       70.61       70.40       70.20       70.00    
   3   -1000.      -1000.      -1000.      -1000.       82.41       82.29       82.15       81.97       81.77       81.58    
        81.38       81.16       80.91       80.63       80.33       79.99       79.66       79.32       78.98       78.64    
        78.29       77.95       77.61       77.26       76.92       76.58       76.24       75.90       75.56       75.23    
        74.90       74.57       74.25       73.94       73.63       73.33       73.03       72.75       72.47       72.20    
        71.95       71.70       71.46       71.23       71.01       70.80       70.60       70.40       70.20       70.00    
   4   -1000.      -1000.      -1000.       82.58       82.47       82.33       82.17       81.98       81.81       81.62    
        81.42       81.18       80.93       80.65       80.34       80.00       79.66       79.32       78.98       78.64    
        78.29       77.95       77.60       77.26       76.91       76.57       76.23       75.89       75.55       75.21    
        74.88       74.55       74.23       73.91       73.60       73.30       73.00       72.72       72.44       72.17    
        71.92       71.67       71.43       71.21       70.99       70.78       70.58       70.38       70.19       70.00    
   5   -1000.      -1000.       82.73       82.63       82.51       82.36       82.18       82.03       81.85       81.66    
        81.44       81.21       80.95       80.66       80.35       80.01       79.66       79.32       78.98       78.63    
        78.29       77.94       77.60       77.25       76.90       76.56       76.21       75.87       75.53       75.19    
        74.86       74.53       74.20       73.88       73.57       73.26       72.97       72.68       72.40       72.13    
        71.87       71.63       71.39       71.17       70.96       70.76       70.56       70.37       70.18       70.00    
   6   -1000.       82.85       82.77       82.66       82.53       82.37       82.23       82.07       81.89       81.69    
        81.47       81.23       80.96       80.67       80.35       80.01       79.67       79.32       78.98       78.63    
        78.28       77.94       77.59       77.24       76.89       76.54       76.20       75.85       75.51       75.17    
        74.83       74.50       74.17       73.85       73.53       73.22       72.92       72.62       72.34       72.07    
        71.82       71.57       71.34       71.12       70.92       70.72       70.53       70.35       70.17       70.00    
   7    82.92       82.87       82.79       82.68       82.54       82.41       82.27       82.10       81.92       81.72    
        81.50       81.25       80.98       80.68       80.36       80.02       79.67       79.33       78.98       78.63    
        78.28       77.93       77.58       77.23       76.88       76.53       76.18       75.83       75.48       75.14    
        74.80       74.46       74.13       73.80       73.48       73.16       72.86       72.56       72.28       72.01    
        71.75       71.51       71.28       71.06       70.86       70.67       70.50       70.33       70.16       70.00    
   8    82.92       82.88       82.79       82.68       82.57       82.44       82.30       82.13       81.95       81.74    
        81.52       81.27       80.99       80.70       80.37       80.02       79.68       79.33       78.98       78.62    
        78.27       77.92       77.57       77.21       76.86       76.51       76.16       75.80       75.45       75.11    
        74.76       74.42       74.08       73.74       73.42       73.10       72.79       72.49       72.20       71.92    
        71.66       71.42       71.20       70.99       70.80       70.62       70.45       70.30       70.15       70.00    
   9    82.92       82.87       82.79       82.70       82.59       82.47       82.32       82.16       81.97       81.77    
        81.54       81.28       81.01       80.71       80.38       80.03       79.68       79.33       78.97       78.62    
        78.27       77.91       77.55       77.20       76.84       76.49       76.13       75.78       75.42       75.07    
        74.72       74.37       74.02       73.68       73.35       73.02       72.70       72.40       72.10       71.82    
        71.56       71.32       71.10       70.90       70.72       70.55       70.40       70.26       70.13       70.00    
  10    82.91       82.86       82.80       82.72       82.62       82.49       82.35       82.18       81.99       81.78    
        81.55       81.30       81.02       80.72       80.39       80.03       79.68       79.32       78.97       78.61    
        78.26       77.90       77.54       77.18       76.82       76.46       76.10       75.74       75.39       75.03    
        74.67       74.31       73.96       73.61       73.27       72.93       72.61       72.29       71.99       71.70    
        71.44       71.20       70.98       70.79       70.62       70.47       70.34       70.22       70.11       70.00    
  11    82.90       82.87       82.81       82.73       82.63       82.51       82.37       82.20       82.01       81.80    
        81.57       81.31       81.03       80.72       80.39       80.04       79.68       79.32       78.96       78.61    
        78.25       77.89       77.53       77.16       76.80       76.44       76.07       75.71       75.35       74.98    
        74.62       74.26       73.90       73.54       73.18       72.84       72.50       72.17       71.86       71.56    
        71.29       71.05       70.84       70.65       70.50       70.37       70.26       70.17       70.08       70.00    
  12    82.90       82.88       82.82       82.75       82.65       82.53       82.38       82.22       82.03       81.82    
        81.58       81.32       81.04       80.73       80.40       80.04       79.68       79.32       78.96       78.60    
        78.24       77.87       77.51       77.14       76.78       76.41       76.04       75.68       75.31       74.94    
        74.57       74.19       73.82       73.46       73.09       72.73       72.38       72.03       71.71       71.40    
        71.12       70.87       70.66       70.49       70.35       70.25       70.17       70.10       70.05       70.00    
  13    82.91       82.88       82.83       82.76       82.66       82.54       82.40       82.23       82.04       81.83    
        81.59       81.33       81.05       80.74       80.40       80.04       79.68       79.32       78.95       78.59    
        78.23       77.86       77.49       77.12       76.75       76.38       76.01       75.64       75.26       74.89    
        74.51       74.13       73.75       73.37       72.99       72.61       72.24       71.88       71.53       71.21    
        70.91       70.65       70.44       70.28       70.18       70.10       70.06       70.03       70.01       70.00    
  14    82.92       82.89       82.84       82.77       82.67       82.55       82.41       82.24       82.05       81.84    
        81.60       81.34       81.05       80.74       80.40       80.04       79.68       79.31       78.95       78.58    
        78.21       77.85       77.48       77.10       76.73       76.36       75.98       75.60       75.22       74.84    
        74.45       74.06       73.67       73.28       72.88       72.49       72.10       71.71       71.34       70.98    
        70.66       70.38       70.17       70.03       69.96       69.93       69.93       69.95       69.97       70.00    
  15    82.93       82.90       82.85       82.78       82.68       82.56       82.42       82.25       82.06       81.85    
        81.61       81.35       81.06       80.75       80.41       80.04       79.68       79.31       78.94       78.57    
        78.20       77.83       77.46       77.08       76.71       76.33       75.95       75.57       75.18       74.79    
        74.40       74.00       73.60       73.19       72.78       72.36       71.94       71.53       71.12       70.72    
        70.36       70.04       69.81       69.71       69.69       69.73       69.79       69.86       69.93       70.00    
  16    82.93       82.91       82.86       82.79       82.69       82.57       82.43       82.26       82.07       81.86    
        81.62       81.35       81.06       80.75       80.41       80.04       79.67       79.31       78.93       78.56    
        78.19       77.81       77.44       77.06       76.68       76.30       75.92       75.53       75.14       74.75    
        74.35       73.94       73.52       73.10       72.67       72.23       71.78       71.33       70.88       70.43    
        69.99       69.59       69.31       69.27       69.37       69.50       69.63       69.76       69.88       70.00    
  17    82.94       82.92       82.87       82.80       82.70       82.58       82.44       82.27       82.08       81.87    
        81.62       81.36       81.07       80.75       80.41       80.04       79.67       79.30       78.93       78.55    
        78.18       77.80       77.42       77.04       76.66       76.27       75.89       75.50       75.10       74.70    
        74.30       73.88       73.46       73.02       72.56       72.10       71.62       71.14       70.64       70.12    
        69.55       68.95       68.48       68.65       68.97       69.25       69.48       69.68       69.84       70.00    
  18    82.95       82.93       82.88       82.81       82.71       82.59       82.45       82.28       82.09       81.87    
        81.63       81.37       81.07       80.76       80.41       80.04       79.67       79.30       78.92       78.54    
        78.16       77.78       77.40       77.01       76.63       76.24       75.86       75.46       75.07       74.67    
        74.26       73.84       73.40       72.95       72.47       71.98       71.47       70.95       70.42       69.82    
        69.06       67.99       66.62       67.71       68.52       69.02       69.36       69.61       69.81       70.00    
  19    82.96       82.94       82.89       82.82       82.72       82.60       82.46       82.29       82.10       81.88    
        81.64       81.37       81.08       80.76       80.41       80.04       79.67       79.29       78.91       78.53    
        78.15       77.76       77.38       76.99       76.60       76.22       75.83       75.44       75.04       74.64    
        74.23       73.80       73.36       72.89       72.40       71.88       71.33       70.78       70.24       69.62    
        68.68       66.72       59.40       66.46       68.19       68.90       69.31       69.58       69.80       70.00    
  20    82.97       82.94       82.90       82.82       82.73       82.61       82.47       82.30       82.10       81.89    
        81.64       81.38       81.08       80.76       80.42       80.04       79.67       79.29       78.91       78.52    
        78.13       77.75       77.36       76.97       76.58       76.19       75.80       75.41       75.02       74.62    
        74.20       73.78       73.33       72.86       72.36       71.81       71.23       70.64       70.17       69.65    
        68.95       67.92       66.57       67.68       68.50       69.01       69.35       69.61       69.81       70.00    
  21    82.98       82.95       82.90       82.83       82.74       82.62       82.47       82.30       82.11       81.89    
        81.65       81.38       81.09       80.77       80.42       80.04       79.67       79.28       78.90       78.51    
        78.12       77.73       77.33       76.94       76.54       76.16       75.77       75.38       74.99       74.60    
        74.20       73.78       73.34       72.87       72.36       71.81       71.20       70.56       70.21       69.83    
        69.36       68.82       68.39       68.60       68.93       69.23       69.47       69.67       69.84       70.00    
  22    82.98       82.96       82.91       82.84       82.74       82.63       82.48       82.31       82.12       81.90    
        81.66       81.39       81.09       80.77       80.42       80.05       79.67       79.28       78.89       78.50    
        78.11       77.71       77.31       76.90       76.51       76.12       75.74       75.36       74.98       74.59    
        74.20       73.79       73.36       72.91       72.43       71.91       71.37       70.84       70.47       70.13    
        69.78       69.44       69.21       69.21       69.32       69.47       69.62       69.75       69.88       70.00    
  23    82.99       82.97       82.92       82.85       82.75       82.63       82.49       82.32       82.13       81.91    
        81.67       81.40       81.10       80.78       80.43       80.05       79.67       79.28       78.89       78.50    
        78.09       77.69       77.27       76.86       76.46       76.07       75.70       75.33       74.96       74.59    
        74.22       73.82       73.41       72.99       72.54       72.07       71.59       71.15       70.78       70.46    
        70.15       69.89       69.71       69.64       69.64       69.70       69.77       69.85       69.92       70.00    
  24    83.00       82.97       82.93       82.86       82.76       82.64       82.50       82.33       82.13       81.92    
        81.67       81.40       81.11       80.79       80.44       80.06       79.67       79.29       78.89       78.49    
        78.09       77.67       77.24       76.80       76.37       76.00       75.64       75.29       74.95       74.60    
        74.24       73.87       73.48       73.08       72.66       72.24       71.82       71.42       71.07       70.76    
        70.49       70.25       70.07       69.96       69.91       69.90       69.91       69.94       69.97       70.00    
  25    83.01       82.98       82.93       82.86       82.77       82.65       82.50       82.34       82.14       81.92    
        81.68       81.41       81.12       80.79       80.44       80.07       79.68       79.29       78.90       78.50    
        78.08       77.65       77.19       76.71       76.21       75.87       75.55       75.23       74.92       74.61    
        74.28       73.93       73.56       73.18       72.80       72.41       72.03       71.67       71.34       71.04    
        70.77       70.55       70.36       70.23       70.14       70.08       70.05       70.02       70.01       70.00    
  26    83.01       82.99       82.94       82.87       82.77       82.65       82.51       82.34       82.15       81.93    
        81.69       81.42       81.13       80.80       80.45       80.08       79.69       79.31       78.91       78.51    
        78.09       77.65       77.14       76.56       75.99       75.66       75.39       75.13       74.87       74.61    
        74.33       74.00       73.66       73.30       72.94       72.57       72.22       71.88       71.57       71.28    
        71.02       70.80       70.61       70.45       70.33       70.24       70.17       70.11       70.05       70.00    
  27    83.02       82.99       82.95       82.88       82.78       82.66       82.52       82.35       82.16       81.94    
        81.70       81.43       81.14       80.82       80.47       80.09       79.71       79.32       78.93       78.53    
        78.12       77.69       77.24       76.75       76.26       75.93       75.62       75.32       75.02       74.72    
        74.41       74.09       73.75       73.40       73.06       72.72       72.38       72.06       71.76       71.48    
        71.22       71.00       70.80       70.63       70.48       70.36       70.26       70.17       70.08       70.00    
  28    83.02       83.00       82.95       82.88       82.79       82.67       82.53       82.36       82.17       81.95    
        81.71       81.44       81.15       80.83       80.48       80.11       79.73       79.34       78.96       78.56    
        78.16       77.75       77.33       76.90       76.48       76.12       75.78       75.46       75.14       74.82    
        74.50       74.18       73.85       73.51       73.18       72.85       72.53       72.22       71.93       71.65    
        71.40       71.17       70.96       70.78       70.61       70.47       70.34       70.22       70.11       70.00    
  29    83.03       83.01       82.96       82.89       82.79       82.67       82.53       82.37       82.17       81.96    
        81.72       81.45       81.16       80.84       80.50       80.12       79.75       79.37       78.99       78.60    
        78.21       77.81       77.41       77.01       76.62       76.26       75.91       75.57       75.25       74.92    
        74.60       74.27       73.94       73.62       73.29       72.97       72.66       72.36       72.08       71.81    
        71.55       71.32       71.10       70.91       70.73       70.56       70.41       70.27       70.13       70.00    
  30    83.04       83.01       82.96       82.89       82.80       82.68       82.54       82.37       82.18       81.97    
        81.73       81.46       81.17       80.86       80.51       80.14       79.77       79.40       79.02       78.64    
        78.25       77.87       77.48       77.10       76.73       76.37       76.02       75.68       75.34       75.01    
        74.69       74.36       74.04       73.72       73.40       73.09       72.79       72.49       72.21       71.94    
        71.68       71.45       71.22       71.02       70.82       70.64       70.47       70.31       70.15       70.00    
  31    83.04       83.02       82.97       82.90       82.80       82.69       82.55       82.38       82.19       81.98    
        81.74       81.47       81.19       80.87       80.53       80.16       79.79       79.42       79.05       78.68    
        78.30       77.93       77.55       77.18       76.81       76.46       76.11       75.77       75.43       75.10    
        74.78       74.45       74.13       73.82       73.50       73.20       72.90       72.61       72.33       72.06    
        71.80       71.56       71.33       71.11       70.91       70.71       70.53       70.35       70.17       70.00    
  32    83.04       83.02       82.97       82.90       82.81       82.69       82.55       82.39       82.20       81.98    
        81.75       81.48       81.20       80.89       80.55       80.18       79.82       79.45       79.08       78.71    
        78.35       77.98       77.61       77.25       76.89       76.54       76.19       75.85       75.52       75.19    
        74.86       74.54       74.22       73.91       73.60       73.29       73.00       72.71       72.43       72.16    
        71.90       71.66       71.42       71.19       70.98       70.77       70.57       70.38       70.19       70.00    
  33    83.05       83.02       82.98       82.91       82.81       82.70       82.56       82.39       82.20       81.99    
        81.76       81.50       81.21       80.90       80.56       80.20       79.84       79.48       79.12       78.75    
        78.39       78.03       77.67       77.31       76.96       76.61       76.26       75.93       75.59       75.27    
        74.94       74.62       74.30       73.99       73.69       73.38       73.09       72.80       72.52       72.25    
        71.99       71.74       71.50       71.27       71.04       70.82       70.61       70.41       70.20       70.00    
  34    83.05       83.03       82.98       82.91       82.82       82.70       82.56       82.40       82.21       82.00    
        81.76       81.50       81.22       80.91       80.58       80.22       79.86       79.51       79.15       78.79    
        78.43       78.07       77.72       77.37       77.02       76.67       76.33       76.00       75.66       75.34    
        75.01       74.70       74.38       74.07       73.77       73.47       73.17       72.89       72.61       72.34    
        72.07       71.82       71.57       71.33       71.10       70.87       70.65       70.43       70.22       70.00    
  35    83.05       83.03       82.98       82.91       82.82       82.70       82.56       82.40       82.21       82.00    
        81.77       81.51       81.23       80.93       80.60       80.24       79.89       79.53       79.18       78.82    
        78.47       78.12       77.76       77.42       77.07       76.73       76.39       76.06       75.73       75.40    
        75.08       74.76       74.45       74.14       73.84       73.54       73.25       72.96       72.68       72.41    
        72.14       71.88       71.63       71.38       71.14       70.91       70.68       70.45       70.23       70.00    
  36    83.05       83.03       82.98       82.91       82.82       82.70       82.56       82.40       82.22       82.01    
        81.78       81.52       81.24       80.94       80.61       80.26       79.91       79.55       79.20       78.85    
        78.50       78.15       77.81       77.46       77.12       76.78       76.45       76.12       75.79       75.46    
        75.14       74.83       74.52       74.21       73.91       73.61       73.32       73.03       72.75       72.47    
        72.20       71.94       71.68       71.43       71.19       70.94       70.71       70.47       70.23       70.00    
  37    83.05       83.03       82.98       82.91       82.82       82.70       82.56       82.40       82.22       82.01    
        81.78       81.53       81.25       80.95       80.62       80.27       79.92       79.58       79.23       78.88    
        78.53       78.19       77.85       77.50       77.17       76.83       76.50       76.17       75.84       75.52    
        75.20       74.89       74.58       74.27       73.97       73.67       73.38       73.09       72.81       72.53    
        72.26       71.99       71.73       71.48       71.22       70.97       70.73       70.49       70.24       70.00    
  38    83.05       83.03       82.98       82.91       82.82       82.70       82.56       82.40       82.22       82.01    
        81.78       81.53       81.26       80.96       80.63       80.29       79.94       79.59       79.25       78.90    
        78.56       78.22       77.88       77.54       77.21       76.87       76.54       76.22       75.89       75.57    
        75.25       74.94       74.63       74.32       74.02       73.73       73.43       73.14       72.86       72.58    
        72.31       72.04       71.77       71.51       71.26       71.00       70.75       70.50       70.25       70.00    
  39    83.06       83.03       82.98       82.91       82.81       82.70       82.56       82.40       82.21       82.01    
        81.78       81.53       81.26       80.96       80.64       80.30       79.95       79.61       79.27       78.93    
        78.59       78.25       77.91       77.58       77.24       76.91       76.58       76.26       75.94       75.62    
        75.30       74.99       74.68       74.37       74.07       73.77       73.48       73.19       72.91       72.63    
        72.35       72.08       71.81       71.55       71.28       71.02       70.77       70.51       70.26       70.00    
  40    83.06       83.03       82.98       82.90       82.81       82.69       82.55       82.39       82.21       82.00    
        81.78       81.53       81.26       80.97       80.65       80.31       79.97       79.63       79.29       78.95    
        78.61       78.27       77.94       77.61       77.28       76.95       76.62       76.30       75.98       75.66    
        75.34       75.03       74.72       74.42       74.12       73.82       73.52       73.23       72.95       72.67    
        72.39       72.11       71.84       71.57       71.31       71.04       70.78       70.52       70.26       70.00    
  41    83.07       83.03       82.97       82.89       82.80       82.68       82.54       82.38       82.20       82.00    
        81.77       81.53       81.26       80.97       80.65       80.32       79.98       79.64       79.30       78.97    
        78.63       78.30       77.96       77.63       77.30       76.98       76.65       76.33       76.01       75.69    
        75.38       75.07       74.76       74.46       74.15       73.86       73.56       73.27       72.99       72.70    
        72.42       72.14       71.87       71.60       71.33       71.06       70.80       70.53       70.27       70.00    
  42    83.09       83.05       82.96       82.88       82.78       82.66       82.52       82.37       82.19       81.99    
        81.77       81.52       81.26       80.97       80.66       80.32       79.98       79.65       79.31       78.98    
        78.65       78.32       77.99       77.66       77.33       77.00       76.68       76.36       76.04       75.73    
        75.41       75.10       74.79       74.49       74.19       73.89       73.60       73.31       73.02       72.73    
        72.45       72.17       71.89       71.62       71.35       71.08       70.81       70.54       70.27       70.00    
  43    83.10       83.06       82.98       82.87       82.76       82.64       82.51       82.35       82.17       81.97    
        81.76       81.52       81.25       80.97       80.66       80.32       79.99       79.66       79.33       78.99    
        78.66       78.33       78.01       77.68       77.35       77.03       76.71       76.39       76.07       75.75    
        75.44       75.13       74.82       74.52       74.22       73.92       73.63       73.33       73.04       72.76    
        72.48       72.19       71.92       71.64       71.36       71.09       70.82       70.55       70.27       70.00    
  44    83.11       83.06       82.98       82.87       82.74       82.62       82.48       82.32       82.15       81.96    
        81.74       81.50       81.25       80.96       80.66       80.33       79.99       79.66       79.33       79.00    
        78.68       78.35       78.02       77.70       77.37       77.05       76.73       76.41       76.09       75.78    
        75.47       75.16       74.85       74.55       74.25       73.95       73.65       73.36       73.07       72.78    
        72.50       72.21       71.93       71.65       71.38       71.10       70.83       70.55       70.28       70.00    
  45   -1000.       83.04       82.97       82.86       82.74       82.58       82.45       82.30       82.13       81.93    
        81.72       81.49       81.24       80.96       80.65       80.33       80.00       79.67       79.34       79.01    
        78.69       78.36       78.04       77.71       77.39       77.07       76.75       76.43       76.11       75.80    
        75.49       75.18       74.87       74.57       74.27       73.97       73.67       73.38       73.09       72.80    
[...]
  24    83.00       82.97       82.93       82.86       82.76       82.64       82.50       82.33       82.13       81.92    
        81.67       81.40       81.11       80.79       80.44       80.06       79.67       79.29       78.89       78.49    
        78.09       77.67       77.25       76.83       76.42       76.03       75.67       75.31       74.96       74.60    
        74.24       73.87       73.48       73.07       72.65       72.23       71.80       71.40       71.06       70.75    
        70.48       70.25       70.08       69.97       69.91       69.90       69.91       69.94       69.97       70.00    
  25    83.01       82.98       82.93       82.86       82.77       82.65       82.50       82.34       82.14       81.92    
        81.68       81.41       81.12       80.79       80.44       80.07       79.68       79.29       78.90       78.50    
        78.08       77.66       77.23       76.79       76.37       75.99       75.63       75.29       74.96       74.63    
        74.28       73.93       73.56       73.18       72.79       72.40       72.02       71.65       71.32       71.03    
        70.77       70.54       70.36       70.23       70.14       70.08       70.04       70.02       70.01       70.00    
  26    83.01       82.99       82.94       82.87       82.77       82.65       82.51       82.34       82.15       81.93    
        81.69       81.42       81.13       80.80       80.45       80.08       79.69       79.31       78.91       78.51    
        78.10       77.67       77.23       76.78       76.35       75.97       75.63       75.30       74.99       74.67    
        74.34       74.00       73.65       73.29       72.92       72.56       72.21       71.87       71.55       71.27    
        71.01       70.79       70.60       70.44       70.32       70.23       70.16       70.10       70.05       70.00    
  27    83.02       82.99       82.95       82.88       82.78       82.66       82.52       82.35       82.16       81.94    
        81.70       81.43       81.14       80.82       80.47       80.09       79.71       79.32       78.93       78.53    
        78.12       77.70       77.27       76.84       76.42       76.05       75.71       75.38       75.06       74.74    
        74.42       74.08       73.74       73.40       73.05       72.71       72.37       72.05       71.75       71.47    
        71.22       70.99       70.79       70.62       70.48       70.36       70.26       70.16       70.08       70.00    
  28    83.02       83.00       82.95       82.88       82.79       82.67       82.53       82.36       82.17       81.95    
        81.71       81.44       81.15       80.83       80.48       80.11       79.73       79.34       78.96       78.56    
        78.16       77.75       77.34       76.93       76.53       76.16       75.81       75.48       75.15       74.83    
        74.50       74.17       73.84       73.51       73.17       72.85       72.52       72.22       71.92       71.65    
        71.40       71.17       70.96       70.77       70.61       70.47       70.34       70.22       70.11       70.00    
  29    83.03       83.01       82.96       82.89       82.79       82.67       82.53       82.37       82.17       81.96    
        81.72       81.45       81.16       80.84       80.50       80.12       79.75       79.37       78.99       78.60    
        78.20       77.81       77.41       77.02       76.64       76.27       75.92       75.58       75.25       74.92    
        74.60       74.27       73.94       73.61       73.29       72.97       72.66       72.36       72.07       71.80    
        71.55       71.32       71.10       70.90       70.72       70.56       70.41       70.27       70.13       70.00    
  30    83.04       83.01       82.96       82.89       82.80       82.68       82.54       82.37       82.18       81.97    
        81.73       81.46       81.17       80.86       80.51       80.14       79.77       79.40       79.02       78.64    
        78.25       77.87       77.48       77.10       76.73       76.37       76.02       75.68       75.34       75.01    
        74.69       74.36       74.04       73.72       73.40       73.09       72.78       72.49       72.21       71.94    
        71.68       71.44       71.22       71.01       70.82       70.64       70.47       70.31       70.15       70.00    
  31    83.04       83.02       82.97       82.90       82.80       82.69       82.54       82.38       82.19       81.98    
        81.74       81.47       81.19       80.87       80.53       80.16       79.79       79.42       79.05       78.68    
        78.30       77.92       77.55       77.18       76.81       76.46       76.11       75.77       75.43       75.10    
        74.77       74.45       74.13       73.81       73.50       73.19       72.89       72.60       72.32       72.05    
        71.80       71.56       71.33       71.11       70.91       70.71       70.53       70.35       70.17       70.00    
  32    83.04       83.02       82.97       82.90       82.81       82.69       82.55       82.39       82.20       81.98    
        81.75       81.48       81.20       80.89       80.55       80.18       79.82       79.45       79.08       78.71    
        78.34       77.98       77.61       77.24       76.89       76.53       76.19       75.85       75.51       75.18    
        74.86       74.54       74.22       73.90       73.60       73.29       73.00       72.71       72.43       72.16    
        71.90       71.65       71.42       71.19       70.98       70.77       70.57       70.38       70.19       70.00    
  33    83.05       83.02       82.98       82.91       82.81       82.70       82.56       82.39       82.20       81.99    
        81.76       81.50       81.21       80.90       80.56       80.20       79.84       79.48       79.12       78.75    
        78.39       78.02       77.66       77.31       76.95       76.60       76.26       75.92       75.59       75.26    
        74.94       74.62       74.30       73.99       73.68       73.38       73.09       72.80       72.52       72.25    
        71.99       71.74       71.50       71.26       71.04       70.82       70.61       70.41       70.20       70.00    
  34    83.05       83.03       82.98       82.91       82.82       82.70       82.56       82.40       82.21       82.00    
        81.76       81.50       81.22       80.91       80.58       80.22       79.86       79.51       79.15       78.79    
        78.43       78.07       77.71       77.36       77.01       76.67       76.33       75.99       75.66       75.33    
        75.01       74.69       74.38       74.07       73.76       73.46       73.17       72.88       72.60       72.33    
        72.07       71.81       71.57       71.33       71.09       70.87       70.65       70.43       70.21       70.00    
  35    83.05       83.03       82.98       82.91       82.82       82.70       82.56       82.40       82.21       82.00    
        81.77       81.51       81.23       80.93       80.60       80.24       79.89       79.53       79.18       78.82    
        78.47       78.11       77.76       77.41       77.07       76.73       76.39       76.06       75.73       75.40    
        75.08       74.76       74.45       74.14       73.84       73.54       73.25       72.96       72.68       72.41    
        72.14       71.88       71.63       71.38       71.14       70.91       70.68       70.45       70.22       70.00    
  36    83.05       83.03       82.98       82.91       82.82       82.70       82.56       82.40       82.22       82.01    
        81.78       81.52       81.24       80.94       80.61       80.26       79.91       79.55       79.20       78.85    
        78.50       78.15       77.80       77.46       77.12       76.78       76.44       76.11       75.79       75.46    
        75.14       74.83       74.51       74.21       73.90       73.61       73.31       73.03       72.75       72.47    
        72.20       71.94       71.68       71.43       71.18       70.94       70.70       70.47       70.23       70.00    
  37    83.05       83.03       82.98       82.91       82.82       82.70       82.56       82.40       82.22       82.01    
        81.78       81.53       81.25       80.95       80.62       80.27       79.92       79.58       79.23       78.88    
        78.53       78.19       77.84       77.50       77.16       76.83       76.49       76.17       75.84       75.52    
        75.20       74.88       74.57       74.27       73.96       73.67       73.37       73.09       72.81       72.53    
        72.26       71.99       71.73       71.47       71.22       70.97       70.73       70.48       70.24       70.00    
  38    83.05       83.03       82.98       82.91       82.82       82.70       82.56       82.40       82.22       82.01    
        81.78       81.53       81.26       80.96       80.63       80.29       79.94       79.59       79.25       78.90    
        78.56       78.22       77.88       77.54       77.20       76.87       76.54       76.21       75.89       75.57    
        75.25       74.94       74.63       74.32       74.02       73.72       73.43       73.14       72.86       72.58    
        72.31       72.04       71.77       71.51       71.25       71.00       70.75       70.50       70.25       70.00    
  39    83.06       83.03       82.98       82.91       82.81       82.70       82.56       82.40       82.21       82.01    
        81.78       81.53       81.26       80.96       80.64       80.30       79.95       79.61       79.27       78.93    
        78.59       78.25       77.91       77.57       77.24       76.91       76.58       76.26       75.93       75.61    
        75.30       74.98       74.68       74.37       74.07       73.77       73.48       73.19       72.90       72.62    
        72.35       72.08       71.81       71.54       71.28       71.02       70.77       70.51       70.25       70.00    
  40    83.06       83.03       82.98       82.90       82.81       82.69       82.55       82.39       82.21       82.00    
        81.78       81.53       81.26       80.97       80.65       80.31       79.97       79.63       79.29       78.95    
        78.61       78.27       77.94       77.60       77.27       76.94       76.62       76.29       75.97       75.65    
        75.34       75.03       74.72       74.41       74.11       73.82       73.52       73.23       72.95       72.66    
        72.39       72.11       71.84       71.57       71.31       71.04       70.78       70.52       70.26       70.00    
  41   -1000.       83.03       82.97       82.89       82.80       82.68       82.54       82.38       82.20       82.00    
        81.77       81.53       81.26       80.97       80.65       80.32       79.98       79.64       79.30       78.97    
        78.63       78.29       77.96       77.63       77.30       76.97       76.65       76.33       76.01       75.69    
        75.38       75.07       74.76       74.45       74.15       73.85       73.56       73.27       72.98       72.70    
        72.42       72.14       71.87       71.60       71.33       71.06       70.79       70.53       70.26       70.00    
  42   -1000.      -1000.       82.96       82.88       82.78       82.66       82.52       82.37       82.19       81.99    
        81.77       81.52       81.26       80.97       80.66       80.32       79.98       79.65       79.31       78.98    
        78.65       78.31       77.98       77.65       77.33       77.00       76.68       76.36       76.04       75.72    
        75.41       75.10       74.79       74.49       74.19       73.89       73.59       73.30       73.01       72.73    
        72.45       72.17       71.89       71.62       71.35       71.08       70.81       70.54       70.27       70.00    
  43   -1000.      -1000.      -1000.       82.87       82.76       82.64       82.51       82.35       82.17       81.97    
        81.76       81.52       81.25       80.97       80.66       80.32       79.99       79.66       79.33       78.99    
        78.66       78.33       78.00       77.68       77.35       77.03       76.70       76.38       76.07       75.75    
        75.44       75.13       74.82       74.52       74.22       73.92       73.62       73.33       73.04       72.76    
        72.47       72.19       71.91       71.64       71.36       71.09       70.82       70.54       70.27       70.00    
  44   -1000.      -1000.      -1000.      -1000.       82.74       82.62       82.48       82.32       82.15       81.96    
        81.74       81.50       81.25       80.96       80.66       80.33       79.99       79.66       79.33       79.00    
        78.67       78.35       78.02       77.69       77.37       77.05       76.73       76.41       76.09       75.78    
        75.46       75.15       74.85       74.54       74.24       73.94       73.65       73.36       73.07       72.78    
        72.49       72.21       71.93       71.65       71.38       71.10       70.82       70.55       70.27       70.00    
  45   -1000.      -1000.      -1000.      -1000.      -1000.       82.58       82.45       82.30       82.13       81.93    
        81.72       81.49       81.24       80.96       80.65       80.33       80.00       79.67       79.34       79.01    
        78.68       78.36       78.03       77.71       77.38       77.06       76.74       76.43       76.11       75.80    
        75.48       75.18       74.87       74.57       74.26       73.97       73.67       73.38       73.09       72.80    
        72.51       72.23       71.95       71.67       71.39       71.11       70.83       70.55       70.28       70.00    
  46   -1000.      -1000.      -1000.      -1000.      -1000.      -1000.       82.41       82.26       82.09       81.91    
        81.70       81.48       81.22       80.95       80.65       80.32       80.00       79.67       79.35       79.02    
        78.69       78.37       78.04       77.72       77.40       77.08       76.76       76.44       76.13       75.81    
        75.50       75.19       74.89       74.58       74.28       73.98       73.69       73.39       73.10       72.81    
        72.53       72.24       71.96       71.68       71.40       71.12       70.84       70.56       70.28       70.00    
  47   -1000.      -1000.      -1000.      -1000.      -1000.      -1000.      -1000.       82.22       82.06       81.88    
        81.68       81.46       81.21       80.94       80.64       80.32       80.00       79.67       79.35       79.02    
        78.70       78.38       78.05       77.73       77.41       77.09       76.77       76.45       76.14       75.83    
        75.52       75.21       74.90       74.60       74.30       74.00       73.70       73.41       73.12       72.83    
        72.54       72.25       71.97       71.69       71.40       71.12       70.84       70.56       70.28       70.00    
  48   -1000.      -1000.      -1000.      -1000.      -1000.      -1000.      -1000.      -1000.       82.02       81.84    
        81.65       81.44       81.20       80.93       80.64       80.32       80.00       79.68       79.35       79.03    
        78.70       78.38       78.06       77.74       77.42       77.10       76.78       76.46       76.15       75.84    
        75.53       75.22       74.91       74.61       74.31       74.01       73.71       73.42       73.12       72.83    
        72.55       72.26       71.97       71.69       71.41       71.13       70.85       70.56       70.28       70.00    
  49   -1000.      -1000.      -1000.      -1000.      -1000.      -1000.      -1000.      -1000.      -1000.       81.80    
        81.62       81.42       81.19       80.92       80.63       80.32       80.00       79.68       79.35       79.03    
        78.71       78.38       78.06       77.74       77.42       77.10       76.78       76.47       76.15       75.84    
        75.53       75.22       74.92       74.62       74.31       74.01       73.72       73.42       73.13       72.84    
        72.55       72.27       71.98       71.70       71.41       71.13       70.85       70.57       70.28       70.00    
  50   -1000.      -1000.      -1000.      -1000.      -1000.      -1000.      -1000.      -1000.      -1000.      -1000.    
        81.58       81.40       81.18       80.92       80.63       80.32       80.00       79.68       79.35       79.03    
        78.71       78.39       78.06       77.74       77.42       77.10       76.79       76.47       76.16       75.85    
        75.54       75.23       74.92       74.62       74.32       74.02       73.72       73.43       73.13       72.84    
        72.55       72.27       71.98       71.70       71.41       71.13       70.85       70.57       70.28       70.00    

 HEAD WILL BE SAVED ON UNIT   51 AT END OF TIME STEP    1, STRESS PERIOD    1

 DRAWDOWN WILL BE SAVED ON UNIT   52 AT END OF TIME STEP    1, STRESS PERIOD    1
1
  VOLUMETRIC BUDGET FOR ENTIRE MODEL AT END OF TIME STEP    1, STRESS PERIOD   1
  ------------------------------------------------------------------------------

     CUMULATIVE VOLUMES      L**3       RATES FOR THIS TIME STEP      L**3/T
     ------------------                 ------------------------

           IN:                                      IN:
           ---                                      ---
             STORAGE =           0.0000               STORAGE =           0.0000
       CONSTANT HEAD =      166875.8750         CONSTANT HEAD =         927.0882
               WELLS =           0.0000                 WELLS =           0.0000
                  ET =           0.0000                    ET =           0.0000
            RECHARGE =     2548800.0000              RECHARGE =       14160.0000
      STREAM LEAKAGE =       15495.6113        STREAM LEAKAGE =          86.0867

            TOTAL IN =     2731171.5000              TOTAL IN =       15173.1748

          OUT:                                     OUT:
          ----                                     ----
             STORAGE =           0.0000               STORAGE =           0.0000
       CONSTANT HEAD =      932243.6250         CONSTANT HEAD =        5179.1313
               WELLS =     1560107.5000                 WELLS =        8667.2637
                  ET =      235464.2812                    ET =        1308.1349
            RECHARGE =           0.0000              RECHARGE =           0.0000
      STREAM LEAKAGE =        3356.0349        STREAM LEAKAGE =          18.6446

           TOTAL OUT =     2731171.5000             TOTAL OUT =       15173.1738

            IN - OUT =           0.0000              IN - OUT =       9.7656E-04

 PERCENT DISCREPANCY =           0.00     PERCENT DISCREPANCY =           0.00






         TIME SUMMARY AT END OF TIME STEP    1 IN STRESS PERIOD    1
                    SECONDS     MINUTES      HOURS       DAYS        YEARS
                    -----------------------------------------------------------
   TIME STEP LENGTH 1.55520E+07 2.59200E+05  4320.0      180.00     0.49281    
 STRESS PERIOD TIME 1.55520E+07 2.59200E+05  4320.0      180.00     0.49281    
         TOTAL TIME 1.55520E+07 2.59200E+05  4320.0      180.00     0.49281    
1
 FAILURE TO MEET SOLVER CONVERGENCE CRITERIA
 BUDGET PERCENT DISCREPANCY IS    0.0000
 STOPPING SIMULATION

 Run end date and time (yyyy/mm/dd hh:mm:ss): 2023/05/19 11:42:56
 Elapsed run time:  0.427 Seconds

