Get the name of the MODPATH simulation file.
Read the first two records of the simulation file to get mpnamFile and mplistFile ...
Allocate rectangular unstructured grid component.
Allocate time discretization data component ...
Allocate disGrid.
Read grid file.
 
 ----------------------------------------------------------
 Cell connection data:
 ----------------------------------------------------------
 Format has two lines for each cell, listed by cell number.
 Line 1: Cell connections
 Line 1: Face assignment codes
 ----------------------------------------------------------
        1       2      51    2501
        0   20101   30101   50101
 
        2       1       3      52    2502
        0   10101   20101   30101   50101
 
        3       2       4      53    2503
        0   10101   20101   30101   50101
 
        4       3       5      54    2504
        0   10101   20101   30101   50101
 
        5       4       6      55    2505
        0   10101   20101   30101   50101
 
        6       5       7      56    2506
        0   10101   20101   30101   50101
 
        7       6       8      57    2507
        0   10101   20101   30101   50101
 
        8       7       9      58    2508
        0   10101   20101   30101   50101
 
        9       8      10      59    2509
        0   10101   20101   30101   50101
 
       10       9      11      60    2510
        0   10101   20101   30101   50101
 
       11      10      12      61    2511
        0   10101   20101   30101   50101
 
       12      11      13      62    2512
        0   10101   20101   30101   50101
 
       13      12      14      63    2513
        0   10101   20101   30101   50101
 
       14      13      15      64    2514
        0   10101   20101   30101   50101
 
       15      14      16      65    2515
        0   10101   20101   30101   50101
 
       16      15      17      66    2516
        0   10101   20101   30101   50101
 
       17      16      18      67    2517
        0   10101   20101   30101   50101
 
       18      17      19      68    2518
        0   10101   20101   30101   50101
 
       19      18      20      69    2519
        0   10101   20101   30101   50101
 
       20      19      21      70    2520
        0   10101   20101   30101   50101
 
       21      20      22      71    2521
        0   10101   20101   30101   50101
 
       22      21      23      72    2522
        0   10101   20101   30101   50101
 
       23      22      24      73    2523
        0   10101   20101   30101   50101
 
       24      23      25      74    2524
        0   10101   20101   30101   50101
 
       25      24      26      75    2525
        0   10101   20101   30101   50101
 
       26      25      27      76    2526
        0   10101   20101   30101   50101
 
       27      26      28      77    2527
        0   10101   20101   30101   50101
 
       28      27      29      78    2528
        0   10101   20101   30101   50101
 
       29      28      30      79    2529
        0   10101   20101   30101   50101
 
       30      29      31      80    2530
        0   10101   20101   30101   50101
 
       31      30      32      81    2531
        0   10101   20101   30101   50101
 
       32      31      33      82    2532
        0   10101   20101   30101   50101
 
       33      32      34      83    2533
        0   10101   20101   30101   50101
 
       34      33      35      84    2534
        0   10101   20101   30101   50101
 
       35      34      36      85    2535
        0   10101   20101   30101   50101
 
       36      35      37      86    2536
        0   10101   20101   30101   50101
 
       37      36      38      87    2537
        0   10101   20101   30101   50101
 
       38      37      39      88    2538
        0   10101   20101   30101   50101
 
       39      38      40      89    2539
        0   10101   20101   30101   50101
 
       40      39      41      90    2540
        0   10101   20101   30101   50101
 
       41      40      42      91    2541
        0   10101   20101   30101   50101
 
       42      41      43      92    2542
        0   10101   20101   30101   50101
 
       43      42      44      93    2543
        0   10101   20101   30101   50101
 
       44      43      45      94    2544
        0   10101   20101   30101   50101
 
       45      44      46      95    2545
        0   10101   20101   30101   50101
 
       46      45      47      96    2546
        0   10101   20101   30101   50101
 
       47      46      48      97    2547
        0   10101   20101   30101   50101
 
       48      47      49      98    2548
        0   10101   20101   30101   50101
 
       49      48      50      99    2549
        0   10101   20101   30101   50101
 
       50      49     100    2550
        0   10101   30101   50101
 
       51       1      52     101    2551
        0   40101   20101   30101   50101
 
       52       2      51      53     102    2552
        0   40101   10101   20101   30101   50101
 
       53       3      52      54     103    2553
        0   40101   10101   20101   30101   50101
 
       54       4      53      55     104    2554
        0   40101   10101   20101   30101   50101
 
       55       5      54      56     105    2555
        0   40101   10101   20101   30101   50101
 
       56       6      55      57     106    2556
        0   40101   10101   20101   30101   50101
 
       57       7      56      58     107    2557
        0   40101   10101   20101   30101   50101
 
       58       8      57      59     108    2558
        0   40101   10101   20101   30101   50101
 
       59       9      58      60     109    2559
        0   40101   10101   20101   30101   50101
 
       60      10      59      61     110    2560
        0   40101   10101   20101   30101   50101
 
       61      11      60      62     111    2561
        0   40101   10101   20101   30101   50101
 
       62      12      61      63     112    2562
        0   40101   10101   20101   30101   50101
 
       63      13      62      64     113    2563
        0   40101   10101   20101   30101   50101
 
       64      14      63      65     114    2564
        0   40101   10101   20101   30101   50101
 
       65      15      64      66     115    2565
        0   40101   10101   20101   30101   50101
 
       66      16      65      67     116    2566
        0   40101   10101   20101   30101   50101
 
       67      17      66      68     117    2567
        0   40101   10101   20101   30101   50101
 
       68      18      67      69     118    2568
        0   40101   10101   20101   30101   50101
 
       69      19      68      70     119    2569
        0   40101   10101   20101   30101   50101
 
       70      20      69      71     120    2570
        0   40101   10101   20101   30101   50101
 
       71      21      70      72     121    2571
        0   40101   10101   20101   30101   50101
 
       72      22      71      73     122    2572
        0   40101   10101   20101   30101   50101
 
       73      23      72      74     123    2573
        0   40101   10101   20101   30101   50101
 
       74      24      73      75     124    2574
        0   40101   10101   20101   30101   50101
 
       75      25      74      76     125    2575
        0   40101   10101   20101   30101   50101
 
       76      26      75      77     126    2576
        0   40101   10101   20101   30101   50101
 
       77      27      76      78     127    2577
        0   40101   10101   20101   30101   50101
 
       78      28      77      79     128    2578
        0   40101   10101   20101   30101   50101
 
       79      29      78      80     129    2579
        0   40101   10101   20101   30101   50101
 
       80      30      79      81     130    2580
        0   40101   10101   20101   30101   50101
 
       81      31      80      82     131    2581
        0   40101   10101   20101   30101   50101
 
       82      32      81      83     132    2582
        0   40101   10101   20101   30101   50101
 
       83      33      82      84     133    2583
        0   40101   10101   20101   30101   50101
 
       84      34      83      85     134    2584
        0   40101   10101   20101   30101   50101
 
       85      35      84      86     135    2585
        0   40101   10101   20101   30101   50101
 
       86      36      85      87     136    2586
        0   40101   10101   20101   30101   50101
 
       87      37      86      88     137    2587
        0   40101   10101   20101   30101   50101
 
       88      38      87      89     138    2588
        0   40101   10101   20101   30101   50101
 
       89      39      88      90     139    2589
        0   40101   10101   20101   30101   50101
 
       90      40      89      91     140    2590
        0   40101   10101   20101   30101   50101
 
       91      41      90      92     141    2591
        0   40101   10101   20101   30101   50101
 
       92      42      91      93     142    2592
        0   40101   10101   20101   30101   50101
 
       93      43      92      94     143    2593
        0   40101   10101   20101   30101   50101
 
       94      44      93      95     144    2594
        0   40101   10101   20101   30101   50101
 
       95      45      94      96     145    2595
        0   40101   10101   20101   30101   50101
 
       96      46      95      97     146    2596
        0   40101   10101   20101   30101   50101
 
       97      47      96      98     147    2597
        0   40101   10101   20101   30101   50101
 
       98      48      97      99     148    2598
        0   40101   10101   20101   30101   50101
 
       99      49      98     100     149    2599
        0   40101   10101   20101   30101   50101
 
      100      50      99     150    2600
        0   40101   10101   30101   50101
 
      101      51     102     151    2601
        0   40101   20101   30101   50101
 
      102      52     101     103     152    2602
        0   40101   10101   20101   30101   50101
 
      103      53     102     104     153    2603
        0   40101   10101   20101   30101   50101
 
      104      54     103     105     154    2604
        0   40101   10101   20101   30101   50101
 
      105      55     104     106     155    2605
        0   40101   10101   20101   30101   50101
 
      106      56     105     107     156    2606
        0   40101   10101   20101   30101   50101
 
      107      57     106     108     157    2607
        0   40101   10101   20101   30101   50101
 
      108      58     107     109     158    2608
        0   40101   10101   20101   30101   50101
 
      109      59     108     110     159    2609
        0   40101   10101   20101   30101   50101
 
      110      60     109     111     160    2610
        0   40101   10101   20101   30101   50101
 
      111      61     110     112     161    2611
        0   40101   10101   20101   30101   50101
 
      112      62     111     113     162    2612
        0   40101   10101   20101   30101   50101
 
      113      63     112     114     163    2613
        0   40101   10101   20101   30101   50101
 
      114      64     113     115     164    2614
        0   40101   10101   20101   30101   50101
 
      115      65     114     116     165    2615
        0   40101   10101   20101   30101   50101
 
      116      66     115     117     166    2616
        0   40101   10101   20101   30101   50101
 
      117      67     116     118     167    2617
        0   40101   10101   20101   30101   50101
 
      118      68     117     119     168    2618
        0   40101   10101   20101   30101   50101
 
      119      69     118     120     169    2619
        0   40101   10101   20101   30101   50101
 
      120      70     119     121     170    2620
        0   40101   10101   20101   30101   50101
 
      121      71     120     122     171    2621
        0   40101   10101   20101   30101   50101
 
      122      72     121     123     172    2622
        0   40101   10101   20101   30101   50101
 
      123      73     122     124     173    2623
        0   40101   10101   20101   30101   50101
 
      124      74     123     125     174    2624
        0   40101   10101   20101   30101   50101
 
      125      75     124     126     175    2625
        0   40101   10101   20101   30101   50101
 
      126      76     125     127     176    2626
        0   40101   10101   20101   30101   50101
 
      127      77     126     128     177    2627
        0   40101   10101   20101   30101   50101
 
      128      78     127     129     178    2628
        0   40101   10101   20101   30101   50101
 
      129      79     128     130     179    2629
        0   40101   10101   20101   30101   50101
 
      130      80     129     131     180    2630
        0   40101   10101   20101   30101   50101
 
      131      81     130     132     181    2631
        0   40101   10101   20101   30101   50101
 
      132      82     131     133     182    2632
        0   40101   10101   20101   30101   50101
 
      133      83     132     134     183    2633
        0   40101   10101   20101   30101   50101
 
      134      84     133     135     184    2634
        0   40101   10101   20101   30101   50101
 
      135      85     134     136     185    2635
        0   40101   10101   20101   30101   50101
 
      136      86     135     137     186    2636
        0   40101   10101   20101   30101   50101
 
      137      87     136     138     187    2637
        0   40101   10101   20101   30101   50101
 
      138      88     137     139     188    2638
        0   40101   10101   20101   30101   50101
 
      139      89     138     140     189    2639
        0   40101   10101   20101   30101   50101
 
      140      90     139     141     190    2640
        0   40101   10101   20101   30101   50101
 
      141      91     140     142     191    2641
        0   40101   10101   20101   30101   50101
 
      142      92     141     143     192    2642
        0   40101   10101   20101   30101   50101
 
      143      93     142     144     193    2643
        0   40101   10101   20101   30101   50101
 
      144      94     143     145     194    2644
        0   40101   10101   20101   30101   50101
 
      145      95     144     146     195    2645
        0   40101   10101   20101   30101   50101
 
      146      96     145     147     196    2646
        0   40101   10101   20101   30101   50101
 
      147      97     146     148     197    2647
        0   40101   10101   20101   30101   50101
 
      148      98     147     149     198    2648
        0   40101   10101   20101   30101   50101
 
      149      99     148     150     199    2649
        0   40101   10101   20101   30101   50101
 
      150     100     149     200    2650
        0   40101   10101   30101   50101
 
      151     101     152     201    2651
        0   40101   20101   30101   50101
 
      152     102     151     153     202    2652
        0   40101   10101   20101   30101   50101
 
      153     103     152     154     203    2653
        0   40101   10101   20101   30101   50101
 
      154     104     153     155     204    2654
        0   40101   10101   20101   30101   50101
 
      155     105     154     156     205    2655
        0   40101   10101   20101   30101   50101
 
      156     106     155     157     206    2656
        0   40101   10101   20101   30101   50101
 
      157     107     156     158     207    2657
        0   40101   10101   20101   30101   50101
 
      158     108     157     159     208    2658
        0   40101   10101   20101   30101   50101
 
      159     109     158     160     209    2659
        0   40101   10101   20101   30101   50101
 
      160     110     159     161     210    2660
        0   40101   10101   20101   30101   50101
 
      161     111     160     162     211    2661
        0   40101   10101   20101   30101   50101
 
      162     112     161     163     212    2662
        0   40101   10101   20101   30101   50101
 
      163     113     162     164     213    2663
        0   40101   10101   20101   30101   50101
 
      164     114     163     165     214    2664
        0   40101   10101   20101   30101   50101
 
      165     115     164     166     215    2665
        0   40101   10101   20101   30101   50101
 
      166     116     165     167     216    2666
        0   40101   10101   20101   30101   50101
 
      167     117     166     168     217    2667
        0   40101   10101   20101   30101   50101
 
      168     118     167     169     218    2668
        0   40101   10101   20101   30101   50101
 
      169     119     168     170     219    2669
        0   40101   10101   20101   30101   50101
 
      170     120     169     171     220    2670
        0   40101   10101   20101   30101   50101
 
      171     121     170     172     221    2671
        0   40101   10101   20101   30101   50101
 
      172     122     171     173     222    2672
        0   40101   10101   20101   30101   50101
 
      173     123     172     174     223    2673
        0   40101   10101   20101   30101   50101
 
      174     124     173     175     224    2674
        0   40101   10101   20101   30101   50101
 
      175     125     174     176     225    2675
        0   40101   10101   20101   30101   50101
 
      176     126     175     177     226    2676
        0   40101   10101   20101   30101   50101
 
      177     127     176     178     227    2677
        0   40101   10101   20101   30101   50101
 
      178     128     177     179     228    2678
        0   40101   10101   20101   30101   50101
 
      179     129     178     180     229    2679
        0   40101   10101   20101   30101   50101
 
      180     130     179     181     230    2680
        0   40101   10101   20101   30101   50101
 
      181     131     180     182     231    2681
        0   40101   10101   20101   30101   50101
 
      182     132     181     183     232    2682
        0   40101   10101   20101   30101   50101
 
      183     133     182     184     233    2683
        0   40101   10101   20101   30101   50101
 
      184     134     183     185     234    2684
        0   40101   10101   20101   30101   50101
 
      185     135     184     186     235    2685
        0   40101   10101   20101   30101   50101
 
      186     136     185     187     236    2686
        0   40101   10101   20101   30101   50101
 
      187     137     186     188     237    2687
        0   40101   10101   20101   30101   50101
 
      188     138     187     189     238    2688
        0   40101   10101   20101   30101   50101
 
      189     139     188     190     239    2689
        0   40101   10101   20101   30101   50101
 
      190     140     189     191     240    2690
        0   40101   10101   20101   30101   50101
 
      191     141     190     192     241    2691
        0   40101   10101   20101   30101   50101
 
      192     142     191     193     242    2692
        0   40101   10101   20101   30101   50101
 
      193     143     192     194     243    2693
        0   40101   10101   20101   30101   50101
 
      194     144     193     195     244    2694
        0   40101   10101   20101   30101   50101
 
      195     145     194     196     245    2695
        0   40101   10101   20101   30101   50101
 
      196     146     195     197     246    2696
        0   40101   10101   20101   30101   50101
 
      197     147     196     198     247    2697
        0   40101   10101   20101   30101   50101
 
      198     148     197     199     248    2698
        0   40101   10101   20101   30101   50101
 
      199     149     198     200     249    2699
        0   40101   10101   20101   30101   50101
 
      200     150     199     250    2700
        0   40101   10101   30101   50101
 
      201     151     202     251    2701
        0   40101   20101   30101   50101
 
      202     152     201     203     252    2702
        0   40101   10101   20101   30101   50101
 
      203     153     202     204     253    2703
        0   40101   10101   20101   30101   50101
 
      204     154     203     205     254    2704
        0   40101   10101   20101   30101   50101
 
      205     155     204     206     255    2705
        0   40101   10101   20101   30101   50101
 
      206     156     205     207     256    2706
        0   40101   10101   20101   30101   50101
 
      207     157     206     208     257    2707
        0   40101   10101   20101   30101   50101
 
      208     158     207     209     258    2708
        0   40101   10101   20101   30101   50101
 
      209     159     208     210     259    2709
        0   40101   10101   20101   30101   50101
 
      210     160     209     211     260    2710
        0   40101   10101   20101   30101   50101
 
      211     161     210     212     261    2711
        0   40101   10101   20101   30101   50101
 
      212     162     211     213     262    2712
        0   40101   10101   20101   30101   50101
 
      213     163     212     214     263    2713
        0   40101   10101   20101   30101   50101
 
      214     164     213     215     264    2714
        0   40101   10101   20101   30101   50101
 
      215     165     214     216     265    2715
        0   40101   10101   20101   30101   50101
 
      216     166     215     217     266    2716
        0   40101   10101   20101   30101   50101
 
      217     167     216     218     267    2717
        0   40101   10101   20101   30101   50101
 
      218     168     217     219     268    2718
        0   40101   10101   20101   30101   50101
 
      219     169     218     220     269    2719
        0   40101   10101   20101   30101   50101
 
      220     170     219     221     270    2720
        0   40101   10101   20101   30101   50101
 
      221     171     220     222     271    2721
        0   40101   10101   20101   30101   50101
 
      222     172     221     223     272    2722
        0   40101   10101   20101   30101   50101
 
      223     173     222     224     273    2723
        0   40101   10101   20101   30101   50101
 
      224     174     223     225     274    2724
        0   40101   10101   20101   30101   50101
 
      225     175     224     226     275    2725
        0   40101   10101   20101   30101   50101
 
      226     176     225     227     276    2726
        0   40101   10101   20101   30101   50101
 
      227     177     226     228     277    2727
        0   40101   10101   20101   30101   50101
 
      228     178     227     229     278    2728
        0   40101   10101   20101   30101   50101
 
      229     179     228     230     279    2729
        0   40101   10101   20101   30101   50101
 
      230     180     229     231     280    2730
        0   40101   10101   20101   30101   50101
 
      231     181     230     232     281    2731
        0   40101   10101   20101   30101   50101
 
      232     182     231     233     282    2732
        0   40101   10101   20101   30101   50101
 
      233     183     232     234     283    2733
        0   40101   10101   20101   30101   50101
 
      234     184     233     235     284    2734
        0   40101   10101   20101   30101   50101
 
      235     185     234     236     285    2735
        0   40101   10101   20101   30101   50101
 
      236     186     235     237     286    2736
        0   40101   10101   20101   30101   50101
 
      237     187     236     238     287    2737
        0   40101   10101   20101   30101   50101
 
      238     188     237     239     288    2738
        0   40101   10101   20101   30101   50101
 
      239     189     238     240     289    2739
        0   40101   10101   20101   30101   50101
 
      240     190     239     241     290    2740
        0   40101   10101   20101   30101   50101
 
      241     191     240     242     291    2741
        0   40101   10101   20101   30101   50101
 
      242     192     241     243     292    2742
        0   40101   10101   20101   30101   50101
 
      243     193     242     244     293    2743
        0   40101   10101   20101   30101   50101
 
      244     194     243     245     294    2744
        0   40101   10101   20101   30101   50101
 
      245     195     244     246     295    2745
        0   40101   10101   20101   30101   50101
 
      246     196     245     247     296    2746
        0   40101   10101   20101   30101   50101
 
      247     197     246     248     297    2747
        0   40101   10101   20101   30101   50101
 
      248     198     247     249     298    2748
        0   40101   10101   20101   30101   50101
 
      249     199     248     250     299    2749
        0   40101   10101   20101   30101   50101
 
      250     200     249     300    2750
        0   40101   10101   30101   50101
 
      251     201     252     301    2751
        0   40101   20101   30101   50101
 
      252     202     251     253     302    2752
        0   40101   10101   20101   30101   50101
 
      253     203     252     254     303    2753
        0   40101   10101   20101   30101   50101
 
      254     204     253     255     304    2754
        0   40101   10101   20101   30101   50101
 
      255     205     254     256     305    2755
        0   40101   10101   20101   30101   50101
 
      256     206     255     257     306    2756
        0   40101   10101   20101   30101   50101
 
      257     207     256     258     307    2757
        0   40101   10101   20101   30101   50101
 
      258     208     257     259     308    2758
        0   40101   10101   20101   30101   50101
 
      259     209     258     260     309    2759
        0   40101   10101   20101   30101   50101
 
      260     210     259     261     310    2760
        0   40101   10101   20101   30101   50101
 
      261     211     260     262     311    2761
        0   40101   10101   20101   30101   50101
 
      262     212     261     263     312    2762
        0   40101   10101   20101   30101   50101
 
      263     213     262     264     313    2763
        0   40101   10101   20101   30101   50101
 
      264     214     263     265     314    2764
        0   40101   10101   20101   30101   50101
 
      265     215     264     266     315    2765
        0   40101   10101   20101   30101   50101
 
      266     216     265     267     316    2766
        0   40101   10101   20101   30101   50101
 
      267     217     266     268     317    2767
        0   40101   10101   20101   30101   50101
 
      268     218     267     269     318    2768
        0   40101   10101   20101   30101   50101
 
      269     219     268     270     319    2769
        0   40101   10101   20101   30101   50101
 
      270     220     269     271     320    2770
        0   40101   10101   20101   30101   50101
 
      271     221     270     272     321    2771
        0   40101   10101   20101   30101   50101
 
      272     222     271     273     322    2772
        0   40101   10101   20101   30101   50101
 
      273     223     272     274     323    2773
        0   40101   10101   20101   30101   50101
 
      274     224     273     275     324    2774
        0   40101   10101   20101   30101   50101
 
      275     225     274     276     325    2775
        0   40101   10101   20101   30101   50101
 
      276     226     275     277     326    2776
        0   40101   10101   20101   30101   50101
 
      277     227     276     278     327    2777
        0   40101   10101   20101   30101   50101
 
      278     228     277     279     328    2778
        0   40101   10101   20101   30101   50101
 
      279     229     278     280     329    2779
        0   40101   10101   20101   30101   50101
 
      280     230     279     281     330    2780
        0   40101   10101   20101   30101   50101
 
      281     231     280     282     331    2781
        0   40101   10101   20101   30101   50101
 
      282     232     281     283     332    2782
        0   40101   10101   20101   30101   50101
 
      283     233     282     284     333    2783
        0   40101   10101   20101   30101   50101
 
      284     234     283     285     334    2784
        0   40101   10101   20101   30101   50101
 
      285     235     284     286     335    2785
        0   40101   10101   20101   30101   50101
 
      286     236     285     287     336    2786
        0   40101   10101   20101   30101   50101
 
      287     237     286     288     337    2787
        0   40101   10101   20101   30101   50101
 
      288     238     287     289     338    2788
        0   40101   10101   20101   30101   50101
 
      289     239     288     290     339    2789
        0   40101   10101   20101   30101   50101
 
      290     240     289     291     340    2790
        0   40101   10101   20101   30101   50101
 
      291     241     290     292     341    2791
        0   40101   10101   20101   30101   50101
 
      292     242     291     293     342    2792
        0   40101   10101   20101   30101   50101
 
      293     243     292     294     343    2793
        0   40101   10101   20101   30101   50101
 
      294     244     293     295     344    2794
        0   40101   10101   20101   30101   50101
 
      295     245     294     296     345    2795
        0   40101   10101   20101   30101   50101
 
      296     246     295     297     346    2796
        0   40101   10101   20101   30101   50101
 
      297     247     296     298     347    2797
        0   40101   10101   20101   30101   50101
 
      298     248     297     299     348    2798
        0   40101   10101   20101   30101   50101
 
      299     249     298     300     349    2799
        0   40101   10101   20101   30101   50101
 
      300     250     299     350    2800
        0   40101   10101   30101   50101
 
      301     251     302     351    2801
        0   40101   20101   30101   50101
 
      302     252     301     303     352    2802
        0   40101   10101   20101   30101   50101
 
      303     253     302     304     353    2803
        0   40101   10101   20101   30101   50101
 
      304     254     303     305     354    2804
        0   40101   10101   20101   30101   50101
 
      305     255     304     306     355    2805
        0   40101   10101   20101   30101   50101
 
      306     256     305     307     356    2806
        0   40101   10101   20101   30101   50101
 
      307     257     306     308     357    2807
        0   40101   10101   20101   30101   50101
 
      308     258     307     309     358    2808
        0   40101   10101   20101   30101   50101
 
      309     259     308     310     359    2809
        0   40101   10101   20101   30101   50101
 
      310     260     309     311     360    2810
        0   40101   10101   20101   30101   50101
 
      311     261     310     312     361    2811
        0   40101   10101   20101   30101   50101
 
      312     262     311     313     362    2812
        0   40101   10101   20101   30101   50101
 
      313     263     312     314     363    2813
        0   40101   10101   20101   30101   50101
 
      314     264     313     315     364    2814
        0   40101   10101   20101   30101   50101
 
      315     265     314     316     365    2815
        0   40101   10101   20101   30101   50101
 
      316     266     315     317     366    2816
        0   40101   10101   20101   30101   50101
 
      317     267     316     318     367    2817
        0   40101   10101   20101   30101   50101
 
      318     268     317     319     368    2818
        0   40101   10101   20101   30101   50101
 
      319     269     318     320     369    2819
        0   40101   10101   20101   30101   50101
 
      320     270     319     321     370    2820
        0   40101   10101   20101   30101   50101
 
      321     271     320     322     371    2821
        0   40101   10101   20101   30101   50101
 
      322     272     321     323     372    2822
        0   40101   10101   20101   30101   50101
 
      323     273     322     324     373    2823
        0   40101   10101   20101   30101   50101
 
      324     274     323     325     374    2824
        0   40101   10101   20101   30101   50101
 
      325     275     324     326     375    2825
        0   40101   10101   20101   30101   50101
 
      326     276     325     327     376    2826
        0   40101   10101   20101   30101   50101
 
      327     277     326     328     377    2827
        0   40101   10101   20101   30101   50101
 
      328     278     327     329     378    2828
        0   40101   10101   20101   30101   50101
 
      329     279     328     330     379    2829
        0   40101   10101   20101   30101   50101
 
      330     280     329     331     380    2830
        0   40101   10101   20101   30101   50101
 
      331     281     330     332     381    2831
        0   40101   10101   20101   30101   50101
 
      332     282     331     333     382    2832
        0   40101   10101   20101   30101   50101
 
      333     283     332     334     383    2833
        0   40101   10101   20101   30101   50101
 
      334     284     333     335     384    2834
        0   40101   10101   20101   30101   50101
 
      335     285     334     336     385    2835
        0   40101   10101   20101   30101   50101
 
      336     286     335     337     386    2836
        0   40101   10101   20101   30101   50101
 
      337     287     336     338     387    2837
        0   40101   10101   20101   30101   50101
 
      338     288     337     339     388    2838
        0   40101   10101   20101   30101   50101
 
      339     289     338     340     389    2839
        0   40101   10101   20101   30101   50101
 
      340     290     339     341     390    2840
        0   40101   10101   20101   30101   50101
 
      341     291     340     342     391    2841
        0   40101   10101   20101   30101   50101
 
      342     292     341     343     392    2842
        0   40101   10101   20101   30101   50101
 
      343     293     342     344     393    2843
        0   40101   10101   20101   30101   50101
 
      344     294     343     345     394    2844
        0   40101   10101   20101   30101   50101
 
      345     295     344     346     395    2845
        0   40101   10101   20101   30101   50101
 
      346     296     345     347     396    2846
        0   40101   10101   20101   30101   50101
 
      347     297     346     348     397    2847
        0   40101   10101   20101   30101   50101
 
      348     298     347     349     398    2848
        0   40101   10101   20101   30101   50101
 
      349     299     348     350     399    2849
        0   40101   10101   20101   30101   50101
 
      350     300     349     400    2850
        0   40101   10101   30101   50101
 
      351     301     352     401    2851
        0   40101   20101   30101   50101
 
      352     302     351     353     402    2852
        0   40101   10101   20101   30101   50101
 
      353     303     352     354     403    2853
        0   40101   10101   20101   30101   50101
 
      354     304     353     355     404    2854
        0   40101   10101   20101   30101   50101
 
      355     305     354     356     405    2855
        0   40101   10101   20101   30101   50101
 
      356     306     355     357     406    2856
        0   40101   10101   20101   30101   50101
 
      357     307     356     358     407    2857
        0   40101   10101   20101   30101   50101
 
      358     308     357     359     408    2858
        0   40101   10101   20101   30101   50101
 
      359     309     358     360     409    2859
        0   40101   10101   20101   30101   50101
 
      360     310     359     361     410    2860
        0   40101   10101   20101   30101   50101
 
      361     311     360     362     411    2861
        0   40101   10101   20101   30101   50101
 
      362     312     361     363     412    2862
        0   40101   10101   20101   30101   50101
 
      363     313     362     364     413    2863
        0   40101   10101   20101   30101   50101
 
      364     314     363     365     414    2864
        0   40101   10101   20101   30101   50101
 
      365     315     364     366     415    2865
        0   40101   10101   20101   30101   50101
 
      366     316     365     367     416    2866
        0   40101   10101   20101   30101   50101
 
      367     317     366     368     417    2867
        0   40101   10101   20101   30101   50101
 
      368     318     367     369     418    2868
        0   40101   10101   20101   30101   50101
 
      369     319     368     370     419    2869
        0   40101   10101   20101   30101   50101
 
      370     320     369     371     420    2870
        0   40101   10101   20101   30101   50101
 
      371     321     370     372     421    2871
        0   40101   10101   20101   30101   50101
 
      372     322     371     373     422    2872
        0   40101   10101   20101   30101   50101
 
      373     323     372     374     423    2873
        0   40101   10101   20101   30101   50101
 
      374     324     373     375     424    2874
        0   40101   10101   20101   30101   50101
 
      375     325     374     376     425    2875
        0   40101   10101   20101   30101   50101
 
      376     326     375     377     426    2876
        0   40101   10101   20101   30101   50101
 
      377     327     376     378     427    2877
        0   40101   10101   20101   30101   50101
 
      378     328     377     379     428    2878
        0   40101   10101   20101   30101   50101
 
      379     329     378     380     429    2879
        0   40101   10101   20101   30101   50101
 
      380     330     379     381     430    2880
        0   40101   10101   20101   30101   50101
 
      381     331     380     382     431    2881
        0   40101   10101   20101   30101   50101
 
      382     332     381     383     432    2882
        0   40101   10101   20101   30101   50101
 
      383     333     382     384     433    2883
        0   40101   10101   20101   30101   50101
 
      384     334     383     385     434    2884
        0   40101   10101   20101   30101   50101
 
      385     335     384     386     435    2885
        0   40101   10101   20101   30101   50101
 
      386     336     385     387     436    2886
        0   40101   10101   20101   30101   50101
 
      387     337     386     388     437    2887
        0   40101   10101   20101   30101   50101
 
      388     338     387     389     438    2888
        0   40101   10101   20101   30101   50101
 
      389     339     388     390     439    2889
        0   40101   10101   20101   30101   50101
 
      390     340     389     391     440    2890
        0   40101   10101   20101   30101   50101
 
      391     341     390     392     441    2891
        0   40101   10101   20101   30101   50101
 
      392     342     391     393     442    2892
        0   40101   10101   20101   30101   50101
 
      393     343     392     394     443    2893
        0   40101   10101   20101   30101   50101
 
      394     344     393     395     444    2894
        0   40101   10101   20101   30101   50101
 
      395     345     394     396     445    2895
        0   40101   10101   20101   30101   50101
 
      396     346     395     397     446    2896
        0   40101   10101   20101   30101   50101
 
      397     347     396     398     447    2897
        0   40101   10101   20101   30101   50101
 
      398     348     397     399     448    2898
        0   40101   10101   20101   30101   50101
 
      399     349     398     400     449    2899
        0   40101   10101   20101   30101   50101
 
      400     350     399     450    2900
        0   40101   10101   30101   50101
 
      401     351     402     451    2901
        0   40101   20101   30101   50101
 
      402     352     401     403     452    2902
        0   40101   10101   20101   30101   50101
 
      403     353     402     404     453    2903
        0   40101   10101   20101   30101   50101
 
      404     354     403     405     454    2904
        0   40101   10101   20101   30101   50101
 
      405     355     404     406     455    2905
        0   40101   10101   20101   30101   50101
 
      406     356     405     407     456    2906
        0   40101   10101   20101   30101   50101
 
      407     357     406     408     457    2907
        0   40101   10101   20101   30101   50101
 
      408     358     407     409     458    2908
        0   40101   10101   20101   30101   50101
 
      409     359     408     410     459    2909
        0   40101   10101   20101   30101   50101
 
      410     360     409     411     460    2910
        0   40101   10101   20101   30101   50101
 
      411     361     410     412     461    2911
        0   40101   10101   20101   30101   50101
 
      412     362     411     413     462    2912
        0   40101   10101   20101   30101   50101
 
      413     363     412     414     463    2913
        0   40101   10101   20101   30101   50101
 
      414     364     413     415     464    2914
        0   40101   10101   20101   30101   50101
 
      415     365     414     416     465    2915
        0   40101   10101   20101   30101   50101
 
      416     366     415     417     466    2916
        0   40101   10101   20101   30101   50101
 
      417     367     416     418     467    2917
        0   40101   10101   20101   30101   50101
 
      418     368     417     419     468    2918
        0   40101   10101   20101   30101   50101
 
      419     369     418     420     469    2919
        0   40101   10101   20101   30101   50101
 
      420     370     419     421     470    2920
        0   40101   10101   20101   30101   50101
 
      421     371     420     422     471    2921
        0   40101   10101   20101   30101   50101
 
      422     372     421     423     472    2922
        0   40101   10101   20101   30101   50101
 
      423     373     422     424     473    2923
        0   40101   10101   20101   30101   50101
 
      424     374     423     425     474    2924
        0   40101   10101   20101   30101   50101
 
      425     375     424     426     475    2925
        0   40101   10101   20101   30101   50101
 
      426     376     425     427     476    2926
        0   40101   10101   20101   30101   50101
 
      427     377     426     428     477    2927
        0   40101   10101   20101   30101   50101
 
      428     378     427     429     478    2928
        0   40101   10101   20101   30101   50101
 
      429     379     428     430     479    2929
        0   40101   10101   20101   30101   50101
 
      430     380     429     431     480    2930
        0   40101   10101   20101   30101   50101
 
      431     381     430     432     481    2931
        0   40101   10101   20101   30101   50101
 
      432     382     431     433     482    2932
        0   40101   10101   20101   30101   50101
 
      433     383     432     434     483    2933
        0   40101   10101   20101   30101   50101
 
      434     384     433     435     484    2934
        0   40101   10101   20101   30101   50101
 
      435     385     434     436     485    2935
        0   40101   10101   20101   30101   50101
 
      436     386     435     437     486    2936
        0   40101   10101   20101   30101   50101
 
      437     387     436     438     487    2937
        0   40101   10101   20101   30101   50101
 
      438     388     437     439     488    2938
        0   40101   10101   20101   30101   50101
 
      439     389     438     440     489    2939
        0   40101   10101   20101   30101   50101
 
      440     390     439     441     490    2940
        0   40101   10101   20101   30101   50101
 
      441     391     440     442     491    2941
        0   40101   10101   20101   30101   50101
 
      442     392     441     443     492    2942
        0   40101   10101   20101   30101   50101
 
      443     393     442     444     493    2943
        0   40101   10101   20101   30101   50101
 
      444     394     443     445     494    2944
        0   40101   10101   20101   30101   50101
 
      445     395     444     446     495    2945
        0   40101   10101   20101   30101   50101
 
      446     396     445     447     496    2946
        0   40101   10101   20101   30101   50101
 
      447     397     446     448     497    2947
        0   40101   10101   20101   30101   50101
 
      448     398     447     449     498    2948
        0   40101   10101   20101   30101   50101
 
      449     399     448     450     499    2949
        0   40101   10101   20101   30101   50101
 
      450     400     449     500    2950
        0   40101   10101   30101   50101
 
      451     401     452     501    2951
        0   40101   20101   30101   50101
 
      452     402     451     453     502    2952
        0   40101   10101   20101   30101   50101
 
      453     403     452     454     503    2953
        0   40101   10101   20101   30101   50101
 
      454     404     453     455     504    2954
        0   40101   10101   20101   30101   50101
 
      455     405     454     456     505    2955
        0   40101   10101   20101   30101   50101
 
      456     406     455     457     506    2956
        0   40101   10101   20101   30101   50101
 
      457     407     456     458     507    2957
        0   40101   10101   20101   30101   50101
 
      458     408     457     459     508    2958
        0   40101   10101   20101   30101   50101
 
      459     409     458     460     509    2959
        0   40101   10101   20101   30101   50101
 
      460     410     459     461     510    2960
        0   40101   10101   20101   30101   50101
 
      461     411     460     462     511    2961
        0   40101   10101   20101   30101   50101
 
      462     412     461     463     512    2962
        0   40101   10101   20101   30101   50101
 
      463     413     462     464     513    2963
        0   40101   10101   20101   30101   50101
 
      464     414     463     465     514    2964
        0   40101   10101   20101   30101   50101
 
      465     415     464     466     515    2965
        0   40101   10101   20101   30101   50101
 
      466     416     465     467     516    2966
        0   40101   10101   20101   30101   50101
 
      467     417     466     468     517    2967
        0   40101   10101   20101   30101   50101
 
      468     418     467     469     518    2968
        0   40101   10101   20101   30101   50101
 
      469     419     468     470     519    2969
        0   40101   10101   20101   30101   50101
 
      470     420     469     471     520    2970
        0   40101   10101   20101   30101   50101
 
      471     421     470     472     521    2971
        0   40101   10101   20101   30101   50101
 
      472     422     471     473     522    2972
        0   40101   10101   20101   30101   50101
 
      473     423     472     474     523    2973
        0   40101   10101   20101   30101   50101
 
      474     424     473     475     524    2974
        0   40101   10101   20101   30101   50101
 
      475     425     474     476     525    2975
        0   40101   10101   20101   30101   50101
 
      476     426     475     477     526    2976
        0   40101   10101   20101   30101   50101
 
      477     427     476     478     527    2977
        0   40101   10101   20101   30101   50101
 
      478     428     477     479     528    2978
        0   40101   10101   20101   30101   50101
 
      479     429     478     480     529    2979
        0   40101   10101   20101   30101   50101
 
      480     430     479     481     530    2980
        0   40101   10101   20101   30101   50101
 
      481     431     480     482     531    2981
        0   40101   10101   20101   30101   50101
 
      482     432     481     483     532    2982
        0   40101   10101   20101   30101   50101
 
      483     433     482     484     533    2983
        0   40101   10101   20101   30101   50101
 
      484     434     483     485     534    2984
        0   40101   10101   20101   30101   50101
 
      485     435     484     486     535    2985
        0   40101   10101   20101   30101   50101
 
      486     436     485     487     536    2986
        0   40101   10101   20101   30101   50101
 
      487     437     486     488     537    2987
        0   40101   10101   20101   30101   50101
 
      488     438     487     489     538    2988
        0   40101   10101   20101   30101   50101
 
      489     439     488     490     539    2989
        0   40101   10101   20101   30101   50101
 
      490     440     489     491     540    2990
        0   40101   10101   20101   30101   50101
 
      491     441     490     492     541    2991
        0   40101   10101   20101   30101   50101
 
      492     442     491     493     542    2992
        0   40101   10101   20101   30101   50101
 
      493     443     492     494     543    2993
        0   40101   10101   20101   30101   50101
 
      494     444     493     495     544    2994
        0   40101   10101   20101   30101   50101
 
      495     445     494     496     545    2995
        0   40101   10101   20101   30101   50101
 
      496     446     495     497     546    2996
        0   40101   10101   20101   30101   50101
 
      497     447     496     498     547    2997
        0   40101   10101   20101   30101   50101
 
      498     448     497     499     548    2998
        0   40101   10101   20101   30101   50101
 
      499     449     498     500     549    2999
        0   40101   10101   20101   30101   50101
 
      500     450     499     550    3000
        0   40101   10101   30101   50101
 
      501     451     502     551    3001
        0   40101   20101   30101   50101
 
      502     452     501     503     552    3002
        0   40101   10101   20101   30101   50101
 
      503     453     502     504     553    3003
        0   40101   10101   20101   30101   50101
 
      504     454     503     505     554    3004
        0   40101   10101   20101   30101   50101
 
      505     455     504     506     555    3005
        0   40101   10101   20101   30101   50101
 
      506     456     505     507     556    3006
        0   40101   10101   20101   30101   50101
 
      507     457     506     508     557    3007
        0   40101   10101   20101   30101   50101
 
      508     458     507     509     558    3008
        0   40101   10101   20101   30101   50101
 
      509     459     508     510     559    3009
        0   40101   10101   20101   30101   50101
 
      510     460     509     511     560    3010
        0   40101   10101   20101   30101   50101
 
      511     461     510     512     561    3011
        0   40101   10101   20101   30101   50101
 
      512     462     511     513     562    3012
        0   40101   10101   20101   30101   50101
 
      513     463     512     514     563    3013
        0   40101   10101   20101   30101   50101
 
      514     464     513     515     564    3014
        0   40101   10101   20101   30101   50101
 
      515     465     514     516     565    3015
        0   40101   10101   20101   30101   50101
 
      516     466     515     517     566    3016
        0   40101   10101   20101   30101   50101
 
      517     467     516     518     567    3017
        0   40101   10101   20101   30101   50101
 
      518     468     517     519     568    3018
        0   40101   10101   20101   30101   50101
 
      519     469     518     520     569    3019
        0   40101   10101   20101   30101   50101
 
      520     470     519     521     570    3020
        0   40101   10101   20101   30101   50101
 
      521     471     520     522     571    3021
        0   40101   10101   20101   30101   50101
 
      522     472     521     523     572    3022
        0   40101   10101   20101   30101   50101
 
      523     473     522     524     573    3023
        0   40101   10101   20101   30101   50101
 
      524     474     523     525     574    3024
        0   40101   10101   20101   30101   50101
 
      525     475     524     526     575    3025
        0   40101   10101   20101   30101   50101
 
      526     476     525     527     576    3026
        0   40101   10101   20101   30101   50101
 
      527     477     526     528     577    3027
        0   40101   10101   20101   30101   50101
 
      528     478     527     529     578    3028
        0   40101   10101   20101   30101   50101
 
      529     479     528     530     579    3029
        0   40101   10101   20101   30101   50101
 
      530     480     529     531     580    3030
        0   40101   10101   20101   30101   50101
 
      531     481     530     532     581    3031
        0   40101   10101   20101   30101   50101
 
      532     482     531     533     582    3032
        0   40101   10101   20101   30101   50101
 
      533     483     532     534     583    3033
        0   40101   10101   20101   30101   50101
 
      534     484     533     535     584    3034
        0   40101   10101   20101   30101   50101
 
      535     485     534     536     585    3035
        0   40101   10101   20101   30101   50101
 
      536     486     535     537     586    3036
        0   40101   10101   20101   30101   50101
 
      537     487     536     538     587    3037
        0   40101   10101   20101   30101   50101
 
      538     488     537     539     588    3038
        0   40101   10101   20101   30101   50101
 
      539     489     538     540     589    3039
        0   40101   10101   20101   30101   50101
 
      540     490     539     541     590    3040
        0   40101   10101   20101   30101   50101
 
      541     491     540     542     591    3041
        0   40101   10101   20101   30101   50101
 
      542     492     541     543     592    3042
        0   40101   10101   20101   30101   50101
 
      543     493     542     544     593    3043
        0   40101   10101   20101   30101   50101
 
      544     494     543     545     594    3044
        0   40101   10101   20101   30101   50101
 
      545     495     544     546     595    3045
        0   40101   10101   20101   30101   50101
 
      546     496     545     547     596    3046
        0   40101   10101   20101   30101   50101
 
      547     497     546     548     597    3047
        0   40101   10101   20101   30101   50101
 
      548     498     547     549     598    3048
        0   40101   10101   20101   30101   50101
 
      549     499     548     550     599    3049
        0   40101   10101   20101   30101   50101
 
      550     500     549     600    3050
        0   40101   10101   30101   50101
 
      551     501     552     601    3051
        0   40101   20101   30101   50101
 
      552     502     551     553     602    3052
        0   40101   10101   20101   30101   50101
 
      553     503     552     554     603    3053
        0   40101   10101   20101   30101   50101
 
      554     504     553     555     604    3054
        0   40101   10101   20101   30101   50101
 
      555     505     554     556     605    3055
        0   40101   10101   20101   30101   50101
 
      556     506     555     557     606    3056
        0   40101   10101   20101   30101   50101
 
      557     507     556     558     607    3057
        0   40101   10101   20101   30101   50101
 
      558     508     557     559     608    3058
        0   40101   10101   20101   30101   50101
 
      559     509     558     560     609    3059
        0   40101   10101   20101   30101   50101
 
      560     510     559     561     610    3060
        0   40101   10101   20101   30101   50101
 
      561     511     560     562     611    3061
        0   40101   10101   20101   30101   50101
 
      562     512     561     563     612    3062
        0   40101   10101   20101   30101   50101
 
      563     513     562     564     613    3063
        0   40101   10101   20101   30101   50101
 
      564     514     563     565     614    3064
        0   40101   10101   20101   30101   50101
 
      565     515     564     566     615    3065
        0   40101   10101   20101   30101   50101
 
      566     516     565     567     616    3066
        0   40101   10101   20101   30101   50101
 
      567     517     566     568     617    3067
        0   40101   10101   20101   30101   50101
 
      568     518     567     569     618    3068
        0   40101   10101   20101   30101   50101
 
      569     519     568     570     619    3069
        0   40101   10101   20101   30101   50101
 
      570     520     569     571     620    3070
        0   40101   10101   20101   30101   50101
 
      571     521     570     572     621    3071
        0   40101   10101   20101   30101   50101
 
      572     522     571     573     622    3072
        0   40101   10101   20101   30101   50101
 
      573     523     572     574     623    3073
        0   40101   10101   20101   30101   50101
 
      574     524     573     575     624    3074
        0   40101   10101   20101   30101   50101
 
      575     525     574     576     625    3075
        0   40101   10101   20101   30101   50101
 
      576     526     575     577     626    3076
        0   40101   10101   20101   30101   50101
 
      577     527     576     578     627    3077
        0   40101   10101   20101   30101   50101
 
      578     528     577     579     628    3078
        0   40101   10101   20101   30101   50101
 
      579     529     578     580     629    3079
        0   40101   10101   20101   30101   50101
 
      580     530     579     581     630    3080
        0   40101   10101   20101   30101   50101
 
      581     531     580     582     631    3081
        0   40101   10101   20101   30101   50101
 
      582     532     581     583     632    3082
        0   40101   10101   20101   30101   50101
 
      583     533     582     584     633    3083
        0   40101   10101   20101   30101   50101
 
      584     534     583     585     634    3084
        0   40101   10101   20101   30101   50101
 
      585     535     584     586     635    3085
        0   40101   10101   20101   30101   50101
 
      586     536     585     587     636    3086
        0   40101   10101   20101   30101   50101
 
      587     537     586     588     637    3087
        0   40101   10101   20101   30101   50101
 
      588     538     587     589     638    3088
        0   40101   10101   20101   30101   50101
 
      589     539     588     590     639    3089
        0   40101   10101   20101   30101   50101
 
      590     540     589     591     640    3090
        0   40101   10101   20101   30101   50101
 
      591     541     590     592     641    3091
        0   40101   10101   20101   30101   50101
 
      592     542     591     593     642    3092
        0   40101   10101   20101   30101   50101
 
      593     543     592     594     643    3093
        0   40101   10101   20101   30101   50101
 
      594     544     593     595     644    3094
        0   40101   10101   20101   30101   50101
 
      595     545     594     596     645    3095
        0   40101   10101   20101   30101   50101
 
      596     546     595     597     646    3096
        0   40101   10101   20101   30101   50101
 
      597     547     596     598     647    3097
        0   40101   10101   20101   30101   50101
 
      598     548     597     599     648    3098
        0   40101   10101   20101   30101   50101
 
      599     549     598     600     649    3099
        0   40101   10101   20101   30101   50101
 
      600     550     599     650    3100
        0   40101   10101   30101   50101
 
      601     551     602     651    3101
        0   40101   20101   30101   50101
 
      602     552     601     603     652    3102
        0   40101   10101   20101   30101   50101
 
      603     553     602     604     653    3103
        0   40101   10101   20101   30101   50101
 
      604     554     603     605     654    3104
        0   40101   10101   20101   30101   50101
 
      605     555     604     606     655    3105
        0   40101   10101   20101   30101   50101
 
      606     556     605     607     656    3106
        0   40101   10101   20101   30101   50101
 
      607     557     606     608     657    3107
        0   40101   10101   20101   30101   50101
 
      608     558     607     609     658    3108
        0   40101   10101   20101   30101   50101
 
      609     559     608     610     659    3109
        0   40101   10101   20101   30101   50101
 
      610     560     609     611     660    3110
        0   40101   10101   20101   30101   50101
 
      611     561     610     612     661    3111
        0   40101   10101   20101   30101   50101
 
      612     562     611     613     662    3112
        0   40101   10101   20101   30101   50101
 
      613     563     612     614     663    3113
        0   40101   10101   20101   30101   50101
 
      614     564     613     615     664    3114
        0   40101   10101   20101   30101   50101
 
      615     565     614     616     665    3115
        0   40101   10101   20101   30101   50101
 
      616     566     615     617     666    3116
        0   40101   10101   20101   30101   50101
 
      617     567     616     618     667    3117
        0   40101   10101   20101   30101   50101
 
      618     568     617     619     668    3118
        0   40101   10101   20101   30101   50101
 
      619     569     618     620     669    3119
        0   40101   10101   20101   30101   50101
 
      620     570     619     621     670    3120
        0   40101   10101   20101   30101   50101
 
      621     571     620     622     671    3121
        0   40101   10101   20101   30101   50101
 
      622     572     621     623     672    3122
        0   40101   10101   20101   30101   50101
 
      623     573     622     624     673    3123
        0   40101   10101   20101   30101   50101
 
      624     574     623     625     674    3124
        0   40101   10101   20101   30101   50101
 
      625     575     624     626     675    3125
        0   40101   10101   20101   30101   50101
 
      626     576     625     627     676    3126
        0   40101   10101   20101   30101   50101
 
      627     577     626     628     677    3127
        0   40101   10101   20101   30101   50101
 
      628     578     627     629     678    3128
        0   40101   10101   20101   30101   50101
 
      629     579     628     630     679    3129
        0   40101   10101   20101   30101   50101
 
      630     580     629     631     680    3130
        0   40101   10101   20101   30101   50101
 
      631     581     630     632     681    3131
        0   40101   10101   20101   30101   50101
 
      632     582     631     633     682    3132
        0   40101   10101   20101   30101   50101
 
      633     583     632     634     683    3133
        0   40101   10101   20101   30101   50101
 
      634     584     633     635     684    3134
        0   40101   10101   20101   30101   50101
 
      635     585     634     636     685    3135
        0   40101   10101   20101   30101   50101
 
      636     586     635     637     686    3136
        0   40101   10101   20101   30101   50101
 
      637     587     636     638     687    3137
        0   40101   10101   20101   30101   50101
 
      638     588     637     639     688    3138
        0   40101   10101   20101   30101   50101
 
      639     589     638     640     689    3139
        0   40101   10101   20101   30101   50101
 
      640     590     639     641     690    3140
        0   40101   10101   20101   30101   50101
 
      641     591     640     642     691    3141
        0   40101   10101   20101   30101   50101
 
      642     592     641     643     692    3142
        0   40101   10101   20101   30101   50101
 
      643     593     642     644     693    3143
        0   40101   10101   20101   30101   50101
 
      644     594     643     645     694    3144
        0   40101   10101   20101   30101   50101
 
      645     595     644     646     695    3145
        0   40101   10101   20101   30101   50101
 
      646     596     645     647     696    3146
        0   40101   10101   20101   30101   50101
 
      647     597     646     648     697    3147
        0   40101   10101   20101   30101   50101
 
      648     598     647     649     698    3148
        0   40101   10101   20101   30101   50101
 
      649     599     648     650     699    3149
        0   40101   10101   20101   30101   50101
 
      650     600     649     700    3150
        0   40101   10101   30101   50101
 
      651     601     652     701    3151
        0   40101   20101   30101   50101
 
      652     602     651     653     702    3152
        0   40101   10101   20101   30101   50101
 
      653     603     652     654     703    3153
        0   40101   10101   20101   30101   50101
 
      654     604     653     655     704    3154
        0   40101   10101   20101   30101   50101
 
      655     605     654     656     705    3155
        0   40101   10101   20101   30101   50101
 
      656     606     655     657     706    3156
        0   40101   10101   20101   30101   50101
 
      657     607     656     658     707    3157
        0   40101   10101   20101   30101   50101
 
      658     608     657     659     708    3158
        0   40101   10101   20101   30101   50101
 
      659     609     658     660     709    3159
        0   40101   10101   20101   30101   50101
 
      660     610     659     661     710    3160
        0   40101   10101   20101   30101   50101
 
      661     611     660     662     711    3161
        0   40101   10101   20101   30101   50101
 
      662     612     661     663     712    3162
        0   40101   10101   20101   30101   50101
 
      663     613     662     664     713    3163
        0   40101   10101   20101   30101   50101
 
      664     614     663     665     714    3164
        0   40101   10101   20101   30101   50101
 
      665     615     664     666     715    3165
        0   40101   10101   20101   30101   50101
 
      666     616     665     667     716    3166
        0   40101   10101   20101   30101   50101
 
      667     617     666     668     717    3167
        0   40101   10101   20101   30101   50101
 
      668     618     667     669     718    3168
        0   40101   10101   20101   30101   50101
 
      669     619     668     670     719    3169
        0   40101   10101   20101   30101   50101
 
      670     620     669     671     720    3170
        0   40101   10101   20101   30101   50101
 
      671     621     670     672     721    3171
        0   40101   10101   20101   30101   50101
 
      672     622     671     673     722    3172
        0   40101   10101   20101   30101   50101
 
      673     623     672     674     723    3173
        0   40101   10101   20101   30101   50101
 
      674     624     673     675     724    3174
        0   40101   10101   20101   30101   50101
 
      675     625     674     676     725    3175
        0   40101   10101   20101   30101   50101
 
      676     626     675     677     726    3176
        0   40101   10101   20101   30101   50101
 
      677     627     676     678     727    3177
        0   40101   10101   20101   30101   50101
 
      678     628     677     679     728    3178
        0   40101   10101   20101   30101   50101
 
      679     629     678     680     729    3179
        0   40101   10101   20101   30101   50101
 
      680     630     679     681     730    3180
        0   40101   10101   20101   30101   50101
 
      681     631     680     682     731    3181
        0   40101   10101   20101   30101   50101
 
      682     632     681     683     732    3182
        0   40101   10101   20101   30101   50101
 
      683     633     682     684     733    3183
        0   40101   10101   20101   30101   50101
 
      684     634     683     685     734    3184
        0   40101   10101   20101   30101   50101
 
      685     635     684     686     735    3185
        0   40101   10101   20101   30101   50101
 
      686     636     685     687     736    3186
        0   40101   10101   20101   30101   50101
 
      687     637     686     688     737    3187
        0   40101   10101   20101   30101   50101
 
      688     638     687     689     738    3188
        0   40101   10101   20101   30101   50101
 
      689     639     688     690     739    3189
        0   40101   10101   20101   30101   50101
 
      690     640     689     691     740    3190
        0   40101   10101   20101   30101   50101
 
      691     641     690     692     741    3191
        0   40101   10101   20101   30101   50101
 
      692     642     691     693     742    3192
        0   40101   10101   20101   30101   50101
 
      693     643     692     694     743    3193
        0   40101   10101   20101   30101   50101
 
      694     644     693     695     744    3194
        0   40101   10101   20101   30101   50101
 
      695     645     694     696     745    3195
        0   40101   10101   20101   30101   50101
 
      696     646     695     697     746    3196
        0   40101   10101   20101   30101   50101
 
      697     647     696     698     747    3197
        0   40101   10101   20101   30101   50101
 
      698     648     697     699     748    3198
        0   40101   10101   20101   30101   50101
 
      699     649     698     700     749    3199
        0   40101   10101   20101   30101   50101
 
      700     650     699     750    3200
        0   40101   10101   30101   50101
 
      701     651     702     751    3201
        0   40101   20101   30101   50101
 
      702     652     701     703     752    3202
        0   40101   10101   20101   30101   50101
 
      703     653     702     704     753    3203
        0   40101   10101   20101   30101   50101
 
      704     654     703     705     754    3204
        0   40101   10101   20101   30101   50101
 
      705     655     704     706     755    3205
        0   40101   10101   20101   30101   50101
 
      706     656     705     707     756    3206
        0   40101   10101   20101   30101   50101
 
      707     657     706     708     757    3207
        0   40101   10101   20101   30101   50101
 
      708     658     707     709     758    3208
        0   40101   10101   20101   30101   50101
 
      709     659     708     710     759    3209
        0   40101   10101   20101   30101   50101
 
      710     660     709     711     760    3210
        0   40101   10101   20101   30101   50101
 
      711     661     710     712     761    3211
        0   40101   10101   20101   30101   50101
 
      712     662     711     713     762    3212
        0   40101   10101   20101   30101   50101
 
      713     663     712     714     763    3213
        0   40101   10101   20101   30101   50101
 
      714     664     713     715     764    3214
        0   40101   10101   20101   30101   50101
 
      715     665     714     716     765    3215
        0   40101   10101   20101   30101   50101
 
      716     666     715     717     766    3216
        0   40101   10101   20101   30101   50101
 
      717     667     716     718     767    3217
        0   40101   10101   20101   30101   50101
 
      718     668     717     719     768    3218
        0   40101   10101   20101   30101   50101
 
      719     669     718     720     769    3219
        0   40101   10101   20101   30101   50101
 
      720     670     719     721     770    3220
        0   40101   10101   20101   30101   50101
 
      721     671     720     722     771    3221
        0   40101   10101   20101   30101   50101
 
      722     672     721     723     772    3222
        0   40101   10101   20101   30101   50101
 
      723     673     722     724     773    3223
        0   40101   10101   20101   30101   50101
 
      724     674     723     725     774    3224
        0   40101   10101   20101   30101   50101
 
      725     675     724     726     775    3225
        0   40101   10101   20101   30101   50101
 
      726     676     725     727     776    3226
        0   40101   10101   20101   30101   50101
 
      727     677     726     728     777    3227
        0   40101   10101   20101   30101   50101
 
      728     678     727     729     778    3228
        0   40101   10101   20101   30101   50101
 
      729     679     728     730     779    3229
        0   40101   10101   20101   30101   50101
 
      730     680     729     731     780    3230
        0   40101   10101   20101   30101   50101
 
      731     681     730     732     781    3231
        0   40101   10101   20101   30101   50101
 
      732     682     731     733     782    3232
        0   40101   10101   20101   30101   50101
 
      733     683     732     734     783    3233
        0   40101   10101   20101   30101   50101
 
      734     684     733     735     784    3234
        0   40101   10101   20101   30101   50101
 
      735     685     734     736     785    3235
        0   40101   10101   20101   30101   50101
 
      736     686     735     737     786    3236
        0   40101   10101   20101   30101   50101
 
      737     687     736     738     787    3237
        0   40101   10101   20101   30101   50101
 
      738     688     737     739     788    3238
        0   40101   10101   20101   30101   50101
 
      739     689     738     740     789    3239
        0   40101   10101   20101   30101   50101
 
      740     690     739     741     790    3240
        0   40101   10101   20101   30101   50101
 
      741     691     740     742     791    3241
        0   40101   10101   20101   30101   50101
 
      742     692     741     743     792    3242
        0   40101   10101   20101   30101   50101
 
      743     693     742     744     793    3243
        0   40101   10101   20101   30101   50101
 
      744     694     743     745     794    3244
        0   40101   10101   20101   30101   50101
 
      745     695     744     746     795    3245
        0   40101   10101   20101   30101   50101
 
      746     696     745     747     796    3246
        0   40101   10101   20101   30101   50101
 
      747     697     746     748     797    3247
        0   40101   10101   20101   30101   50101
 
      748     698     747     749     798    3248
        0   40101   10101   20101   30101   50101
 
      749     699     748     750     799    3249
        0   40101   10101   20101   30101   50101
 
      750     700     749     800    3250
        0   40101   10101   30101   50101
 
      751     701     752     801    3251
        0   40101   20101   30101   50101
 
      752     702     751     753     802    3252
        0   40101   10101   20101   30101   50101
 
      753     703     752     754     803    3253
        0   40101   10101   20101   30101   50101
 
      754     704     753     755     804    3254
        0   40101   10101   20101   30101   50101
 
      755     705     754     756     805    3255
        0   40101   10101   20101   30101   50101
 
      756     706     755     757     806    3256
        0   40101   10101   20101   30101   50101
 
      757     707     756     758     807    3257
        0   40101   10101   20101   30101   50101
 
      758     708     757     759     808    3258
        0   40101   10101   20101   30101   50101
 
      759     709     758     760     809    3259
        0   40101   10101   20101   30101   50101
 
      760     710     759     761     810    3260
        0   40101   10101   20101   30101   50101
 
      761     711     760     762     811    3261
        0   40101   10101   20101   30101   50101
 
      762     712     761     763     812    3262
        0   40101   10101   20101   30101   50101
 
      763     713     762     764     813    3263
        0   40101   10101   20101   30101   50101
 
      764     714     763     765     814    3264
        0   40101   10101   20101   30101   50101
 
      765     715     764     766     815    3265
        0   40101   10101   20101   30101   50101
 
      766     716     765     767     816    3266
        0   40101   10101   20101   30101   50101
 
      767     717     766     768     817    3267
        0   40101   10101   20101   30101   50101
 
      768     718     767     769     818    3268
        0   40101   10101   20101   30101   50101
 
      769     719     768     770     819    3269
[...]
 
     7304    4804    7254    7303    7305    7354
        0   60101   40101   10101   20101   30101
 
     7305    4805    7255    7304    7306    7355
        0   60101   40101   10101   20101   30101
 
     7306    4806    7256    7305    7307    7356
        0   60101   40101   10101   20101   30101
 
     7307    4807    7257    7306    7308    7357
        0   60101   40101   10101   20101   30101
 
     7308    4808    7258    7307    7309    7358
        0   60101   40101   10101   20101   30101
 
     7309    4809    7259    7308    7310    7359
        0   60101   40101   10101   20101   30101
 
     7310    4810    7260    7309    7311    7360
        0   60101   40101   10101   20101   30101
 
     7311    4811    7261    7310    7312    7361
        0   60101   40101   10101   20101   30101
 
     7312    4812    7262    7311    7313    7362
        0   60101   40101   10101   20101   30101
 
     7313    4813    7263    7312    7314    7363
        0   60101   40101   10101   20101   30101
 
     7314    4814    7264    7313    7315    7364
        0   60101   40101   10101   20101   30101
 
     7315    4815    7265    7314    7316    7365
        0   60101   40101   10101   20101   30101
 
     7316    4816    7266    7315    7317    7366
        0   60101   40101   10101   20101   30101
 
     7317    4817    7267    7316    7318    7367
        0   60101   40101   10101   20101   30101
 
     7318    4818    7268    7317    7319    7368
        0   60101   40101   10101   20101   30101
 
     7319    4819    7269    7318    7320    7369
        0   60101   40101   10101   20101   30101
 
     7320    4820    7270    7319    7321    7370
        0   60101   40101   10101   20101   30101
 
     7321    4821    7271    7320    7322    7371
        0   60101   40101   10101   20101   30101
 
     7322    4822    7272    7321    7323    7372
        0   60101   40101   10101   20101   30101
 
     7323    4823    7273    7322    7324    7373
        0   60101   40101   10101   20101   30101
 
     7324    4824    7274    7323    7325    7374
        0   60101   40101   10101   20101   30101
 
     7325    4825    7275    7324    7326    7375
        0   60101   40101   10101   20101   30101
 
     7326    4826    7276    7325    7327    7376
        0   60101   40101   10101   20101   30101
 
     7327    4827    7277    7326    7328    7377
        0   60101   40101   10101   20101   30101
 
     7328    4828    7278    7327    7329    7378
        0   60101   40101   10101   20101   30101
 
     7329    4829    7279    7328    7330    7379
        0   60101   40101   10101   20101   30101
 
     7330    4830    7280    7329    7331    7380
        0   60101   40101   10101   20101   30101
 
     7331    4831    7281    7330    7332    7381
        0   60101   40101   10101   20101   30101
 
     7332    4832    7282    7331    7333    7382
        0   60101   40101   10101   20101   30101
 
     7333    4833    7283    7332    7334    7383
        0   60101   40101   10101   20101   30101
 
     7334    4834    7284    7333    7335    7384
        0   60101   40101   10101   20101   30101
 
     7335    4835    7285    7334    7336    7385
        0   60101   40101   10101   20101   30101
 
     7336    4836    7286    7335    7337    7386
        0   60101   40101   10101   20101   30101
 
     7337    4837    7287    7336    7338    7387
        0   60101   40101   10101   20101   30101
 
     7338    4838    7288    7337    7339    7388
        0   60101   40101   10101   20101   30101
 
     7339    4839    7289    7338    7340    7389
        0   60101   40101   10101   20101   30101
 
     7340    4840    7290    7339    7341    7390
        0   60101   40101   10101   20101   30101
 
     7341    4841    7291    7340    7342    7391
        0   60101   40101   10101   20101   30101
 
     7342    4842    7292    7341    7343    7392
        0   60101   40101   10101   20101   30101
 
     7343    4843    7293    7342    7344    7393
        0   60101   40101   10101   20101   30101
 
     7344    4844    7294    7343    7345    7394
        0   60101   40101   10101   20101   30101
 
     7345    4845    7295    7344    7346    7395
        0   60101   40101   10101   20101   30101
 
     7346    4846    7296    7345    7347    7396
        0   60101   40101   10101   20101   30101
 
     7347    4847    7297    7346    7348    7397
        0   60101   40101   10101   20101   30101
 
     7348    4848    7298    7347    7349    7398
        0   60101   40101   10101   20101   30101
 
     7349    4849    7299    7348    7350    7399
        0   60101   40101   10101   20101   30101
 
     7350    4850    7300    7349    7400
        0   60101   40101   10101   30101
 
     7351    4851    7301    7352    7401
        0   60101   40101   20101   30101
 
     7352    4852    7302    7351    7353    7402
        0   60101   40101   10101   20101   30101
 
     7353    4853    7303    7352    7354    7403
        0   60101   40101   10101   20101   30101
 
     7354    4854    7304    7353    7355    7404
        0   60101   40101   10101   20101   30101
 
     7355    4855    7305    7354    7356    7405
        0   60101   40101   10101   20101   30101
 
     7356    4856    7306    7355    7357    7406
        0   60101   40101   10101   20101   30101
 
     7357    4857    7307    7356    7358    7407
        0   60101   40101   10101   20101   30101
 
     7358    4858    7308    7357    7359    7408
        0   60101   40101   10101   20101   30101
 
     7359    4859    7309    7358    7360    7409
        0   60101   40101   10101   20101   30101
 
     7360    4860    7310    7359    7361    7410
        0   60101   40101   10101   20101   30101
 
     7361    4861    7311    7360    7362    7411
        0   60101   40101   10101   20101   30101
 
     7362    4862    7312    7361    7363    7412
        0   60101   40101   10101   20101   30101
 
     7363    4863    7313    7362    7364    7413
        0   60101   40101   10101   20101   30101
 
     7364    4864    7314    7363    7365    7414
        0   60101   40101   10101   20101   30101
 
     7365    4865    7315    7364    7366    7415
        0   60101   40101   10101   20101   30101
 
     7366    4866    7316    7365    7367    7416
        0   60101   40101   10101   20101   30101
 
     7367    4867    7317    7366    7368    7417
        0   60101   40101   10101   20101   30101
 
     7368    4868    7318    7367    7369    7418
        0   60101   40101   10101   20101   30101
 
     7369    4869    7319    7368    7370    7419
        0   60101   40101   10101   20101   30101
 
     7370    4870    7320    7369    7371    7420
        0   60101   40101   10101   20101   30101
 
     7371    4871    7321    7370    7372    7421
        0   60101   40101   10101   20101   30101
 
     7372    4872    7322    7371    7373    7422
        0   60101   40101   10101   20101   30101
 
     7373    4873    7323    7372    7374    7423
        0   60101   40101   10101   20101   30101
 
     7374    4874    7324    7373    7375    7424
        0   60101   40101   10101   20101   30101
 
     7375    4875    7325    7374    7376    7425
        0   60101   40101   10101   20101   30101
 
     7376    4876    7326    7375    7377    7426
        0   60101   40101   10101   20101   30101
 
     7377    4877    7327    7376    7378    7427
        0   60101   40101   10101   20101   30101
 
     7378    4878    7328    7377    7379    7428
        0   60101   40101   10101   20101   30101
 
     7379    4879    7329    7378    7380    7429
        0   60101   40101   10101   20101   30101
 
     7380    4880    7330    7379    7381    7430
        0   60101   40101   10101   20101   30101
 
     7381    4881    7331    7380    7382    7431
        0   60101   40101   10101   20101   30101
 
     7382    4882    7332    7381    7383    7432
        0   60101   40101   10101   20101   30101
 
     7383    4883    7333    7382    7384    7433
        0   60101   40101   10101   20101   30101
 
     7384    4884    7334    7383    7385    7434
        0   60101   40101   10101   20101   30101
 
     7385    4885    7335    7384    7386    7435
        0   60101   40101   10101   20101   30101
 
     7386    4886    7336    7385    7387    7436
        0   60101   40101   10101   20101   30101
 
     7387    4887    7337    7386    7388    7437
        0   60101   40101   10101   20101   30101
 
     7388    4888    7338    7387    7389    7438
        0   60101   40101   10101   20101   30101
 
     7389    4889    7339    7388    7390    7439
        0   60101   40101   10101   20101   30101
 
     7390    4890    7340    7389    7391    7440
        0   60101   40101   10101   20101   30101
 
     7391    4891    7341    7390    7392    7441
        0   60101   40101   10101   20101   30101
 
     7392    4892    7342    7391    7393    7442
        0   60101   40101   10101   20101   30101
 
     7393    4893    7343    7392    7394    7443
        0   60101   40101   10101   20101   30101
 
     7394    4894    7344    7393    7395    7444
        0   60101   40101   10101   20101   30101
 
     7395    4895    7345    7394    7396    7445
        0   60101   40101   10101   20101   30101
 
     7396    4896    7346    7395    7397    7446
        0   60101   40101   10101   20101   30101
 
     7397    4897    7347    7396    7398    7447
        0   60101   40101   10101   20101   30101
 
     7398    4898    7348    7397    7399    7448
        0   60101   40101   10101   20101   30101
 
     7399    4899    7349    7398    7400    7449
        0   60101   40101   10101   20101   30101
 
     7400    4900    7350    7399    7450
        0   60101   40101   10101   30101
 
     7401    4901    7351    7402    7451
        0   60101   40101   20101   30101
 
     7402    4902    7352    7401    7403    7452
        0   60101   40101   10101   20101   30101
 
     7403    4903    7353    7402    7404    7453
        0   60101   40101   10101   20101   30101
 
     7404    4904    7354    7403    7405    7454
        0   60101   40101   10101   20101   30101
 
     7405    4905    7355    7404    7406    7455
        0   60101   40101   10101   20101   30101
 
     7406    4906    7356    7405    7407    7456
        0   60101   40101   10101   20101   30101
 
     7407    4907    7357    7406    7408    7457
        0   60101   40101   10101   20101   30101
 
     7408    4908    7358    7407    7409    7458
        0   60101   40101   10101   20101   30101
 
     7409    4909    7359    7408    7410    7459
        0   60101   40101   10101   20101   30101
 
     7410    4910    7360    7409    7411    7460
        0   60101   40101   10101   20101   30101
 
     7411    4911    7361    7410    7412    7461
        0   60101   40101   10101   20101   30101
 
     7412    4912    7362    7411    7413    7462
        0   60101   40101   10101   20101   30101
 
     7413    4913    7363    7412    7414    7463
        0   60101   40101   10101   20101   30101
 
     7414    4914    7364    7413    7415    7464
        0   60101   40101   10101   20101   30101
 
     7415    4915    7365    7414    7416    7465
        0   60101   40101   10101   20101   30101
 
     7416    4916    7366    7415    7417    7466
        0   60101   40101   10101   20101   30101
 
     7417    4917    7367    7416    7418    7467
        0   60101   40101   10101   20101   30101
 
     7418    4918    7368    7417    7419    7468
        0   60101   40101   10101   20101   30101
 
     7419    4919    7369    7418    7420    7469
        0   60101   40101   10101   20101   30101
 
     7420    4920    7370    7419    7421    7470
        0   60101   40101   10101   20101   30101
 
     7421    4921    7371    7420    7422    7471
        0   60101   40101   10101   20101   30101
 
     7422    4922    7372    7421    7423    7472
        0   60101   40101   10101   20101   30101
 
     7423    4923    7373    7422    7424    7473
        0   60101   40101   10101   20101   30101
 
     7424    4924    7374    7423    7425    7474
        0   60101   40101   10101   20101   30101
 
     7425    4925    7375    7424    7426    7475
        0   60101   40101   10101   20101   30101
 
     7426    4926    7376    7425    7427    7476
        0   60101   40101   10101   20101   30101
 
     7427    4927    7377    7426    7428    7477
        0   60101   40101   10101   20101   30101
 
     7428    4928    7378    7427    7429    7478
        0   60101   40101   10101   20101   30101
 
     7429    4929    7379    7428    7430    7479
        0   60101   40101   10101   20101   30101
 
     7430    4930    7380    7429    7431    7480
        0   60101   40101   10101   20101   30101
 
     7431    4931    7381    7430    7432    7481
        0   60101   40101   10101   20101   30101
 
     7432    4932    7382    7431    7433    7482
        0   60101   40101   10101   20101   30101
 
     7433    4933    7383    7432    7434    7483
        0   60101   40101   10101   20101   30101
 
     7434    4934    7384    7433    7435    7484
        0   60101   40101   10101   20101   30101
 
     7435    4935    7385    7434    7436    7485
        0   60101   40101   10101   20101   30101
 
     7436    4936    7386    7435    7437    7486
        0   60101   40101   10101   20101   30101
 
     7437    4937    7387    7436    7438    7487
        0   60101   40101   10101   20101   30101
 
     7438    4938    7388    7437    7439    7488
        0   60101   40101   10101   20101   30101
 
     7439    4939    7389    7438    7440    7489
        0   60101   40101   10101   20101   30101
 
     7440    4940    7390    7439    7441    7490
        0   60101   40101   10101   20101   30101
 
     7441    4941    7391    7440    7442    7491
        0   60101   40101   10101   20101   30101
 
     7442    4942    7392    7441    7443    7492
        0   60101   40101   10101   20101   30101
 
     7443    4943    7393    7442    7444    7493
        0   60101   40101   10101   20101   30101
 
     7444    4944    7394    7443    7445    7494
        0   60101   40101   10101   20101   30101
 
     7445    4945    7395    7444    7446    7495
        0   60101   40101   10101   20101   30101
 
     7446    4946    7396    7445    7447    7496
        0   60101   40101   10101   20101   30101
 
     7447    4947    7397    7446    7448    7497
        0   60101   40101   10101   20101   30101
 
     7448    4948    7398    7447    7449    7498
        0   60101   40101   10101   20101   30101
 
     7449    4949    7399    7448    7450    7499
        0   60101   40101   10101   20101   30101
 
     7450    4950    7400    7449    7500
        0   60101   40101   10101   30101
 
     7451    4951    7401    7452
        0   60101   40101   20101
 
     7452    4952    7402    7451    7453
        0   60101   40101   10101   20101
 
     7453    4953    7403    7452    7454
        0   60101   40101   10101   20101
 
     7454    4954    7404    7453    7455
        0   60101   40101   10101   20101
 
     7455    4955    7405    7454    7456
        0   60101   40101   10101   20101
 
     7456    4956    7406    7455    7457
        0   60101   40101   10101   20101
 
     7457    4957    7407    7456    7458
        0   60101   40101   10101   20101
 
     7458    4958    7408    7457    7459
        0   60101   40101   10101   20101
 
     7459    4959    7409    7458    7460
        0   60101   40101   10101   20101
 
     7460    4960    7410    7459    7461
        0   60101   40101   10101   20101
 
     7461    4961    7411    7460    7462
        0   60101   40101   10101   20101
 
     7462    4962    7412    7461    7463
        0   60101   40101   10101   20101
 
     7463    4963    7413    7462    7464
        0   60101   40101   10101   20101
 
     7464    4964    7414    7463    7465
        0   60101   40101   10101   20101
 
     7465    4965    7415    7464    7466
        0   60101   40101   10101   20101
 
     7466    4966    7416    7465    7467
        0   60101   40101   10101   20101
 
     7467    4967    7417    7466    7468
        0   60101   40101   10101   20101
 
     7468    4968    7418    7467    7469
        0   60101   40101   10101   20101
 
     7469    4969    7419    7468    7470
        0   60101   40101   10101   20101
 
     7470    4970    7420    7469    7471
        0   60101   40101   10101   20101
 
     7471    4971    7421    7470    7472
        0   60101   40101   10101   20101
 
     7472    4972    7422    7471    7473
        0   60101   40101   10101   20101
 
     7473    4973    7423    7472    7474
        0   60101   40101   10101   20101
 
     7474    4974    7424    7473    7475
        0   60101   40101   10101   20101
 
     7475    4975    7425    7474    7476
        0   60101   40101   10101   20101
 
     7476    4976    7426    7475    7477
        0   60101   40101   10101   20101
 
     7477    4977    7427    7476    7478
        0   60101   40101   10101   20101
 
     7478    4978    7428    7477    7479
        0   60101   40101   10101   20101
 
     7479    4979    7429    7478    7480
        0   60101   40101   10101   20101
 
     7480    4980    7430    7479    7481
        0   60101   40101   10101   20101
 
     7481    4981    7431    7480    7482
        0   60101   40101   10101   20101
 
     7482    4982    7432    7481    7483
        0   60101   40101   10101   20101
 
     7483    4983    7433    7482    7484
        0   60101   40101   10101   20101
 
     7484    4984    7434    7483    7485
        0   60101   40101   10101   20101
 
     7485    4985    7435    7484    7486
        0   60101   40101   10101   20101
 
     7486    4986    7436    7485    7487
        0   60101   40101   10101   20101
 
     7487    4987    7437    7486    7488
        0   60101   40101   10101   20101
 
     7488    4988    7438    7487    7489
        0   60101   40101   10101   20101
 
     7489    4989    7439    7488    7490
        0   60101   40101   10101   20101
 
     7490    4990    7440    7489    7491
        0   60101   40101   10101   20101
 
     7491    4991    7441    7490    7492
        0   60101   40101   10101   20101
 
     7492    4992    7442    7491    7493
        0   60101   40101   10101   20101
 
     7493    4993    7443    7492    7494
        0   60101   40101   10101   20101
 
     7494    4994    7444    7493    7495
        0   60101   40101   10101   20101
 
     7495    4995    7445    7494    7496
        0   60101   40101   10101   20101
 
     7496    4996    7446    7495    7497
        0   60101   40101   10101   20101
 
     7497    4997    7447    7496    7498
        0   60101   40101   10101   20101
 
     7498    4998    7448    7497    7499
        0   60101   40101   10101   20101
 
     7499    4999    7449    7498    7500
        0   60101   40101   10101   20101
 
     7500    5000    7450    7499
        0   60101   40101   10101
 
Allocate budget reader component.
Open budget file in budget reader.
Allocate head reader component.
Open head file in head reader component.
Allocate MODPATH basic data component.
Read MODPATH basic data component.
