                                  MODFLOW-2005     
      U.S. GEOLOGICAL SURVEY MODULAR FINITE-DIFFERENCE GROUND-WATER FLOW MODEL
                            VERSION 1.11.00 8/8/2013

 LIST FILE: BASE.list
                         UNIT    2

 OPENING BASE.dis
 FILE TYPE:DIS   UNIT   11   STATUS:OLD    
 FORMAT:FORMATTED              ACCESS:SEQUENTIAL          

 OPENING BASE.bas
 FILE TYPE:BAS6   UNIT   13   STATUS:OLD    
 FORMAT:FORMATTED              ACCESS:SEQUENTIAL          

 OPENING BASE.lpf
 FILE TYPE:LPF   UNIT   15   STATUS:OLD    
 FORMAT:FORMATTED              ACCESS:SEQUENTIAL          

 OPENING BASE.oc
 FILE TYPE:OC   UNIT   14   STATUS:OLD    
 FORMAT:FORMATTED              ACCESS:SEQUENTIAL          

 OPENING BASE.pcg
 FILE TYPE:PCG   UNIT   27   STATUS:OLD    
 FORMAT:FORMATTED              ACCESS:SEQUENTIAL          

 OPENING BASE.rch
 FILE TYPE:RCH   UNIT   19   STATUS:OLD    
 FORMAT:FORMATTED              ACCESS:SEQUENTIAL          

 OPENING BASE.evt
 FILE TYPE:EVT   UNIT   22   STATUS:OLD    
 FORMAT:FORMATTED              ACCESS:SEQUENTIAL          

 OPENING BASE.wel
 FILE TYPE:WEL   UNIT   20   STATUS:OLD    
 FORMAT:FORMATTED              ACCESS:SEQUENTIAL          

 OPENING BASE.str
 FILE TYPE:STR   UNIT  118   STATUS:OLD    
 FORMAT:FORMATTED              ACCESS:SEQUENTIAL          

 OPENING BASE.cbc
 FILE TYPE:DATA(BINARY)   UNIT   53   STATUS:REPLACE
 FORMAT:BINARY                 ACCESS:SEQUENTIAL          

 OPENING BASE.hds
 FILE TYPE:DATA(BINARY)   UNIT   51   STATUS:REPLACE
 FORMAT:BINARY                 ACCESS:SEQUENTIAL          

 OPENING BASE.ddn
 FILE TYPE:DATA(BINARY)   UNIT   52   STATUS:REPLACE
 FORMAT:BINARY                 ACCESS:SEQUENTIAL          

 BAS -- BASIC PACKAGE, VERSION 7, 5/2/2005 INPUT READ FROM UNIT   13
 
 MODFLOW was compiled using mixed precision
 Precision of REAL variables:           6
 Precision of DOUBLE PRECISION variables:          15

 DISCRETIZATION INPUT DATA READ FROM UNIT   11
 # DIS package for  MODFLOW-2005, generated by Flopy.
    3 LAYERS        50 ROWS        50 COLUMNS
    1 STRESS PERIOD(S) IN SIMULATION
 MODEL TIME UNIT IS DAYS
 MODEL LENGTH UNIT IS METERS
  Confining bed flag for each layer:
   0   0   0

                     DELR =  1000.000    

                     DELC =  1000.000    



           TOP ELEVATION OF LAYER 1
 READING ON UNIT   11 WITH FORMAT: (50E15.6)           



             MODEL LAYER BOTTOM EL. FOR LAYER   1
 READING ON UNIT   11 WITH FORMAT: (50E15.6)           



             MODEL LAYER BOTTOM EL. FOR LAYER   2
 READING ON UNIT   11 WITH FORMAT: (50E15.6)           



             MODEL LAYER BOTTOM EL. FOR LAYER   3
 READING ON UNIT   11 WITH FORMAT: (50E15.6)           


 STRESS PERIOD     LENGTH       TIME STEPS     MULTIPLIER FOR DELT    SS FLAG
 ----------------------------------------------------------------------------
        1         180.0000          1                    1.000         SS

 STEADY-STATE SIMULATION



 
 # BAS6 package for  MODFLOW-2005, generated by Flopy.                           
 THE FREE FORMAT OPTION HAS BEEN SELECTED



                     BOUNDARY ARRAY FOR LAYER   1
 READING ON UNIT   13 WITH FORMAT: (50I10)             



                     BOUNDARY ARRAY FOR LAYER   2
 READING ON UNIT   13 WITH FORMAT: (50I10)             



                     BOUNDARY ARRAY FOR LAYER   3
 READING ON UNIT   13 WITH FORMAT: (50I10)             

 AQUIFER HEAD WILL BE SET TO  -999.99     AT ALL NO-FLOW NODES (IBOUND=0).



                       INITIAL HEAD FOR LAYER   1
 READING ON UNIT   13 WITH FORMAT: (50E15.6)           



                       INITIAL HEAD FOR LAYER   2
 READING ON UNIT   13 WITH FORMAT: (50E15.6)           



                       INITIAL HEAD FOR LAYER   3
 READING ON UNIT   13 WITH FORMAT: (50E15.6)           
 # OC package for  MODFLOW-2005, generated by Flopy.

 OUTPUT CONTROL IS SPECIFIED ONLY AT TIME STEPS FOR WHICH OUTPUT IS DESIRED
 COMPACT CELL-BY-CELL BUDGET FILES WILL BE WRITTEN
 AUXILIARY DATA WILL BE SAVED IN CELL-BY-CELL BUDGET FILES
 HEAD PRINT FORMAT CODE IS   0    DRAWDOWN PRINT FORMAT CODE IS   0
 HEADS WILL BE SAVED ON UNIT   51    DRAWDOWNS WILL BE SAVED ON UNIT   52

 LPF -- LAYER-PROPERTY FLOW PACKAGE, VERSION 7, 5/2/2005
         INPUT READ FROM UNIT   15
 # LPF package for  MODFLOW-2005, generated by Flopy.
 CELL-BY-CELL FLOWS WILL BE SAVED ON UNIT   53
 HEAD AT CELLS THAT CONVERT TO DRY= -1.00000E+30
 No named parameters

   LAYER FLAGS:
 LAYER       LAYTYP        LAYAVG         CHANI        LAYVKA        LAYWET
 ---------------------------------------------------------------------------
    1             1             0     0.000E+00             0             0
    2             1             0     0.000E+00             0             0
    3             1             0     0.000E+00             0             0

   INTERPRETATION OF LAYER FLAGS:
                        INTERBLOCK     HORIZONTAL    DATA IN
         LAYER TYPE   TRANSMISSIVITY   ANISOTROPY   ARRAY VKA   WETTABILITY
 LAYER      (LAYTYP)      (LAYAVG)       (CHANI)      (LAYVKA)      (LAYWET)
 ---------------------------------------------------------------------------
    1   CONVERTIBLE      HARMONIC      VARIABLE    VERTICAL K  NON-WETTABLE
    2   CONVERTIBLE      HARMONIC      VARIABLE    VERTICAL K  NON-WETTABLE
    3   CONVERTIBLE      HARMONIC      VARIABLE    VERTICAL K  NON-WETTABLE

 WETTING CAPABILITY IS NOT ACTIVE IN ANY LAYER

    HYD. COND. ALONG ROWS =  10.00000     FOR LAYER   1

   HORIZ. ANI. (COL./ROW) =  1.000000     FOR LAYER   1



                VERTICAL HYD. COND. FOR LAYER   1
 READING ON UNIT   15 WITH FORMAT: (50E15.6)           

    HYD. COND. ALONG ROWS =  10.00000     FOR LAYER   2

   HORIZ. ANI. (COL./ROW) =  1.000000     FOR LAYER   2



                VERTICAL HYD. COND. FOR LAYER   2
 READING ON UNIT   15 WITH FORMAT: (50E15.6)           

    HYD. COND. ALONG ROWS =  10.00000     FOR LAYER   3

   HORIZ. ANI. (COL./ROW) =  1.000000     FOR LAYER   3



                VERTICAL HYD. COND. FOR LAYER   3
 READING ON UNIT   15 WITH FORMAT: (50E15.6)           

 WEL -- WELL PACKAGE, VERSION 7, 5/2/2005 INPUT READ FROM UNIT   20
 # WEL package for  MODFLOW-2005, generated by Flopy.
 No named parameters
 MAXIMUM OF      2 ACTIVE WELLS AT ONE TIME


     0 Well parameters

 EVT -- EVAPOTRANSPIRATION PACKAGE, VERSION 7, 5/2/2005
         INPUT READ FROM UNIT   22
 # EVT package for  MODFLOW-2005, generated by Flopy.
 No named parameters
 OPTION 3 -- EVAPOTRANSPIRATION FROM HIGHEST ACTIVE NODE IN EACH VERTICAL COLUMN
 CELL-BY-CELL FLOWS WILL BE SAVED ON UNIT   53


     0 Evapotranspiration parameters

 RCH -- RECHARGE PACKAGE, VERSION 7, 5/2/2005 INPUT READ FROM UNIT   19
 # RCH package for  MODFLOW-2005, generated by Flopy.
 No named parameters
 OPTION 3 -- RECHARGE TO HIGHEST ACTIVE NODE IN EACH VERTICAL COLUMN


     0 Recharge parameters

 STR -- STREAM PACKAGE, VERSION 7, 5/2/2005 INPUT READ FROM UNIT  118
 # STR package for  MODFLOW-2005, generated by Flopy.
 No named parameters
 MAXIMUM OF     49 ACTIVE STREAM NODES AT ONE TIME
 NUMBER OF STREAM SEGMENTS IS      3
 NUMBER OF STREAM TRIBUTARIES IS      2
 STREAM STAGES WILL BE CALCULATED USING A CONSTANT OF 86400.0000
 CELL BUDGETS WILL BE SAVED ON UNITS   53 AND   53


     0 Stream parameters

 PCG -- CONJUGATE-GRADIENT SOLUTION PACKAGE, VERSION 7, 5/2/2005
 # PCG package for  MODFLOW-2005, generated by Flopy.
 MAXIMUM OF     50 CALLS OF SOLUTION ROUTINE
 MAXIMUM OF     30 INTERNAL ITERATIONS PER CALL TO SOLUTION ROUTINE
 MATRIX PRECONDITIONING TYPE :    1



                                    SOLUTION BY THE CONJUGATE-GRADIENT METHOD
                                   -------------------------------------------
                    MAXIMUM NUMBER OF CALLS TO PCG ROUTINE =       50
                        MAXIMUM ITERATIONS PER CALL TO PCG =       30
                               MATRIX PRECONDITIONING TYPE =        1
        RELAXATION FACTOR (ONLY USED WITH PRECOND. TYPE 1) =    0.10000E+01
 PARAMETER OF POLYNOMIAL PRECOND. = 2 (2) OR IS CALCULATED :        0
                         HEAD CHANGE CRITERION FOR CLOSURE =    0.10000E-04
                     RESIDUAL CHANGE CRITERION FOR CLOSURE =    0.10000E-04
            PCG HEAD AND RESIDUAL CHANGE PRINTOUT INTERVAL =      999
     PRINTING FROM SOLVER IS LIMITED(1) OR SUPPRESSED (>1) =        3
                            STEADY-STATE DAMPING PARAMETER =    0.10000E+01
                               TRANSIENT DAMPING PARAMETER =    0.10000E+01
1
                            STRESS PERIOD NO.    1, LENGTH =   180.0000    
                            -----------------------------------------------

                              NUMBER OF TIME STEPS =     1

                               MULTIPLIER FOR DELT =     1.000

                            INITIAL TIME STEP SIZE =   180.0000    

 WELL NO.  LAYER   ROW   COL   STRESS RATE         
 --------------------------------------------------
      1      3     21     38     -0.7790E+06
      2      1     19     43      -6857.    

      2 WELLS



                         ET SURFACE
 READING ON UNIT   22 WITH FORMAT: (50E15.6)           



            EVAPOTRANSPIRATION RATE
 READING ON UNIT   22 WITH FORMAT: (50E15.6)           



                   EXTINCTION DEPTH
 READING ON UNIT   22 WITH FORMAT: (50E15.6)           



                           RECHARGE
 READING ON UNIT   19 WITH FORMAT: (50E15.6)           

     49 STREAM REACHES
 
 SOLVING FOR HEAD 

 CELL CONVERSIONS FOR ITER.=  2  LAYER=  1  STEP=  1  PERIOD=   1   (ROW,COL)
    DRY(  1,  7)   DRY(  1,  8)   DRY(  1,  9)   DRY(  1, 10)   DRY(  1, 11)   
    DRY(  1, 12)   DRY(  1, 13)   DRY(  1, 14)   DRY(  1, 15)   DRY(  1, 16)   
    DRY(  1, 17)   DRY(  1, 18)   DRY(  1, 19)   DRY(  1, 20)   DRY(  1, 21)   
    DRY(  1, 22)   DRY(  1, 23)   DRY(  1, 24)   DRY(  1, 25)   DRY(  1, 26)   
    DRY(  1, 27)   DRY(  1, 28)   DRY(  1, 29)   DRY(  1, 30)   DRY(  1, 31)   
    DRY(  1, 32)   DRY(  1, 33)   DRY(  1, 34)   DRY(  1, 35)   DRY(  1, 36)   
    DRY(  1, 37)   DRY(  1, 38)   DRY(  1, 39)   DRY(  1, 40)   DRY(  1, 41)   
    DRY(  1, 42)   DRY(  1, 43)   DRY(  1, 44)   DRY(  1, 45)   DRY(  1, 46)   
    DRY(  1, 47)   DRY(  1, 48)   DRY(  2,  6)   DRY(  2,  7)   DRY(  2,  8)   
    DRY(  2,  9)   DRY(  2, 10)   DRY(  2, 11)   DRY(  2, 12)   DRY(  2, 13)   
    DRY(  2, 14)   DRY(  2, 15)   DRY(  2, 16)   DRY(  2, 17)   DRY(  2, 18)   
    DRY(  2, 19)   DRY(  2, 20)   DRY(  2, 21)   DRY(  2, 22)   DRY(  2, 23)   
    DRY(  2, 24)   DRY(  2, 25)   DRY(  2, 26)   DRY(  2, 27)   DRY(  2, 28)   
    DRY(  2, 29)   DRY(  2, 30)   DRY(  2, 31)   DRY(  2, 32)   DRY(  2, 33)   
    DRY(  2, 34)   DRY(  2, 35)   DRY(  2, 36)   DRY(  2, 37)   DRY(  2, 38)   
    DRY(  2, 39)   DRY(  2, 40)   DRY(  2, 41)   DRY(  2, 42)   DRY(  2, 43)   
    DRY(  2, 44)   DRY(  2, 45)   DRY(  2, 46)   DRY(  2, 47)   DRY(  2, 48)   
    DRY(  3,  5)   DRY(  3,  6)   DRY(  3,  7)   DRY(  3,  8)   DRY(  3,  9)   
    DRY(  3, 10)   DRY(  3, 11)   DRY(  3, 12)   DRY(  3, 13)   DRY(  3, 14)   
    DRY(  3, 15)   DRY(  3, 16)   DRY(  3, 17)   DRY(  3, 18)   DRY(  3, 19)   
    DRY(  3, 20)   DRY(  3, 21)   DRY(  3, 22)   DRY(  3, 23)   DRY(  3, 24)   
    DRY(  3, 25)   DRY(  3, 26)   DRY(  3, 27)   DRY(  3, 28)   DRY(  3, 29)   
    DRY(  3, 30)   DRY(  3, 31)   DRY(  3, 32)   DRY(  3, 33)   DRY(  3, 34)   
    DRY(  3, 35)   DRY(  3, 36)   DRY(  3, 37)   DRY(  3, 38)   DRY(  3, 39)   
    DRY(  3, 40)   DRY(  3, 41)   DRY(  3, 42)   DRY(  3, 43)   DRY(  3, 44)   
    DRY(  3, 45)   DRY(  3, 46)   DRY(  3, 47)   DRY(  3, 48)   DRY(  4,  4)   
    DRY(  4,  5)   DRY(  4,  6)   DRY(  4,  7)   DRY(  4,  8)   DRY(  4,  9)   
    DRY(  4, 10)   DRY(  4, 11)   DRY(  4, 12)   DRY(  4, 13)   DRY(  4, 14)   
    DRY(  4, 15)   DRY(  4, 16)   DRY(  4, 17)   DRY(  4, 18)   DRY(  4, 19)   
    DRY(  4, 20)   DRY(  4, 21)   DRY(  4, 22)   DRY(  4, 23)   DRY(  4, 24)   
    DRY(  4, 25)   DRY(  4, 26)   DRY(  4, 27)   DRY(  4, 28)   DRY(  4, 29)   
    DRY(  4, 30)   DRY(  4, 31)   DRY(  4, 32)   DRY(  4, 33)   DRY(  4, 34)   
    DRY(  4, 35)   DRY(  4, 36)   DRY(  4, 37)   DRY(  4, 38)   DRY(  4, 39)   
    DRY(  4, 40)   DRY(  4, 41)   DRY(  4, 42)   DRY(  4, 43)   DRY(  4, 44)   
    DRY(  4, 45)   DRY(  4, 46)   DRY(  4, 47)   DRY(  4, 48)   DRY(  5,  3)   
    DRY(  5,  4)   DRY(  5,  5)   DRY(  5,  6)   DRY(  5,  7)   DRY(  5,  8)   
    DRY(  5,  9)   DRY(  5, 10)   DRY(  5, 11)   DRY(  5, 12)   DRY(  5, 13)   
    DRY(  5, 14)   DRY(  5, 15)   DRY(  5, 16)   DRY(  5, 17)   DRY(  5, 18)   
    DRY(  5, 19)   DRY(  5, 20)   DRY(  5, 21)   DRY(  5, 22)   DRY(  5, 23)   
    DRY(  5, 24)   DRY(  5, 25)   DRY(  5, 26)   DRY(  5, 27)   DRY(  5, 28)   
    DRY(  5, 29)   DRY(  5, 30)   DRY(  5, 31)   DRY(  5, 32)   DRY(  5, 33)   
    DRY(  5, 34)   DRY(  5, 35)   DRY(  5, 36)   DRY(  5, 37)   DRY(  5, 38)   
    DRY(  5, 39)   DRY(  5, 40)   DRY(  5, 41)   DRY(  5, 42)   DRY(  5, 43)   
    DRY(  5, 44)   DRY(  5, 45)   DRY(  5, 46)   DRY(  5, 47)   DRY(  5, 48)   
    DRY(  6,  2)   DRY(  6,  3)   DRY(  6,  4)   DRY(  6,  5)   DRY(  6,  6)   
    DRY(  6,  7)   DRY(  6,  8)   DRY(  6,  9)   DRY(  6, 10)   DRY(  6, 11)   
    DRY(  6, 12)   DRY(  6, 13)   DRY(  6, 14)   DRY(  6, 15)   DRY(  6, 16)   
    DRY(  6, 17)   DRY(  6, 18)   DRY(  6, 19)   DRY(  6, 20)   DRY(  6, 21)   
    DRY(  6, 22)   DRY(  6, 23)   DRY(  6, 24)   DRY(  6, 25)   DRY(  6, 26)   
    DRY(  6, 27)   DRY(  6, 28)   DRY(  6, 29)   DRY(  6, 30)   DRY(  6, 31)   
    DRY(  6, 32)   DRY(  6, 33)   DRY(  6, 34)   DRY(  6, 35)   DRY(  6, 36)   
    DRY(  6, 37)   DRY(  6, 38)   DRY(  6, 39)   DRY(  6, 40)   DRY(  6, 41)   
    DRY(  6, 42)   DRY(  6, 43)   DRY(  6, 44)   DRY(  6, 45)   DRY(  6, 46)   
    DRY(  6, 47)   DRY(  6, 48)   DRY(  7,  1)   DRY(  7,  2)   DRY(  7,  3)   
    DRY(  7,  4)   DRY(  7,  5)   DRY(  7,  6)   DRY(  7,  7)   DRY(  7,  8)   
    DRY(  7,  9)   DRY(  7, 10)   DRY(  7, 11)   DRY(  7, 12)   DRY(  7, 13)   
    DRY(  7, 14)   DRY(  7, 15)   DRY(  7, 16)   DRY(  7, 17)   DRY(  7, 18)   
    DRY(  7, 19)   DRY(  7, 20)   DRY(  7, 21)   DRY(  7, 22)   DRY(  7, 23)   
    DRY(  7, 24)   DRY(  7, 25)   DRY(  7, 26)   DRY(  7, 27)   DRY(  7, 28)   
    DRY(  7, 29)   DRY(  7, 30)   DRY(  7, 31)   DRY(  7, 32)   DRY(  7, 33)   
    DRY(  7, 34)   DRY(  7, 35)   DRY(  7, 36)   DRY(  7, 37)   DRY(  7, 38)   
    DRY(  7, 39)   DRY(  7, 40)   DRY(  7, 41)   DRY(  7, 42)   DRY(  7, 43)   
    DRY(  7, 44)   DRY(  7, 45)   DRY(  7, 46)   DRY(  7, 47)   DRY(  7, 48)   
    DRY(  8,  1)   DRY(  8,  2)   DRY(  8,  3)   DRY(  8,  4)   DRY(  8,  5)   
    DRY(  8,  6)   DRY(  8,  7)   DRY(  8,  8)   DRY(  8,  9)   DRY(  8, 10)   
    DRY(  8, 11)   DRY(  8, 12)   DRY(  8, 13)   DRY(  8, 14)   DRY(  8, 15)   
    DRY(  8, 16)   DRY(  8, 17)   DRY(  8, 18)   DRY(  8, 19)   DRY(  8, 20)   
    DRY(  8, 21)   DRY(  8, 22)   DRY(  8, 23)   DRY(  8, 24)   DRY(  8, 25)   
    DRY(  8, 26)   DRY(  8, 27)   DRY(  8, 28)   DRY(  8, 29)   DRY(  8, 30)   
    DRY(  8, 31)   DRY(  8, 32)   DRY(  8, 33)   DRY(  8, 34)   DRY(  8, 35)   
    DRY(  8, 36)   DRY(  8, 37)   DRY(  8, 38)   DRY(  8, 39)   DRY(  8, 40)   
    DRY(  8, 41)   DRY(  8, 42)   DRY(  8, 43)   DRY(  8, 44)   DRY(  8, 45)   
    DRY(  8, 46)   DRY(  8, 47)   DRY(  8, 48)   DRY(  9,  1)   DRY(  9,  2)   
    DRY(  9,  3)   DRY(  9,  4)   DRY(  9,  5)   DRY(  9,  6)   DRY(  9,  7)   
    DRY(  9,  8)   DRY(  9,  9)   DRY(  9, 10)   DRY(  9, 11)   DRY(  9, 12)   
    DRY(  9, 13)   DRY(  9, 14)   DRY(  9, 15)   DRY(  9, 16)   DRY(  9, 17)   
    DRY(  9, 18)   DRY(  9, 19)   DRY(  9, 20)   DRY(  9, 21)   DRY(  9, 22)   
    DRY(  9, 23)   DRY(  9, 24)   DRY(  9, 25)   DRY(  9, 26)   DRY(  9, 27)   
    DRY(  9, 28)   DRY(  9, 29)   DRY(  9, 30)   DRY(  9, 31)   DRY(  9, 32)   
    DRY(  9, 33)   DRY(  9, 34)   DRY(  9, 35)   DRY(  9, 36)   DRY(  9, 37)   
    DRY(  9, 38)   DRY(  9, 39)   DRY(  9, 40)   DRY(  9, 41)   DRY(  9, 42)   
    DRY(  9, 43)   DRY(  9, 44)   DRY(  9, 45)   DRY(  9, 46)   DRY(  9, 47)   
    DRY(  9, 48)   DRY( 10,  1)   DRY( 10,  2)   DRY( 10,  3)   DRY( 10,  4)   
    DRY( 10,  5)   DRY( 10,  6)   DRY( 10,  7)   DRY( 10,  8)   DRY( 10,  9)   
    DRY( 10, 10)   DRY( 10, 11)   DRY( 10, 12)   DRY( 10, 13)   DRY( 10, 14)   
    DRY( 10, 15)   DRY( 10, 16)   DRY( 10, 17)   DRY( 10, 18)   DRY( 10, 19)   
    DRY( 10, 20)   DRY( 10, 21)   DRY( 10, 22)   DRY( 10, 23)   DRY( 10, 24)   
    DRY( 10, 25)   DRY( 10, 26)   DRY( 10, 27)   DRY( 10, 28)   DRY( 10, 29)   
    DRY( 10, 30)   DRY( 10, 31)   DRY( 10, 32)   DRY( 10, 33)   DRY( 10, 34)   
    DRY( 10, 35)   DRY( 10, 36)   DRY( 10, 37)   DRY( 10, 38)   DRY( 10, 39)   
    DRY( 10, 40)   DRY( 10, 41)   DRY( 10, 42)   DRY( 10, 43)   DRY( 10, 44)   
    DRY( 10, 45)   DRY( 10, 46)   DRY( 10, 47)   DRY( 10, 48)   DRY( 11,  1)   
    DRY( 11,  2)   DRY( 11,  3)   DRY( 11,  4)   DRY( 11,  5)   DRY( 11,  6)   
    DRY( 11,  7)   DRY( 11,  8)   DRY( 11,  9)   DRY( 11, 10)   DRY( 11, 11)   
    DRY( 11, 12)   DRY( 11, 13)   DRY( 11, 14)   DRY( 11, 15)   DRY( 11, 16)   
    DRY( 11, 17)   DRY( 11, 18)   DRY( 11, 19)   DRY( 11, 20)   DRY( 11, 21)   
    DRY( 11, 22)   DRY( 11, 23)   DRY( 11, 24)   DRY( 11, 25)   DRY( 11, 26)   
    DRY( 11, 27)   DRY( 11, 28)   DRY( 11, 29)   DRY( 11, 30)   DRY( 11, 31)   
    DRY( 11, 32)   DRY( 11, 33)   DRY( 11, 34)   DRY( 11, 35)   DRY( 11, 36)   
    DRY( 11, 37)   DRY( 11, 38)   DRY( 11, 39)   DRY( 11, 40)   DRY( 11, 41)   
    DRY( 11, 42)   DRY( 11, 43)   DRY( 11, 44)   DRY( 11, 45)   DRY( 11, 46)   
    DRY( 11, 47)   DRY( 11, 48)   DRY( 12,  1)   DRY( 12,  2)   DRY( 12,  3)   
    DRY( 12,  4)   DRY( 12,  5)   DRY( 12,  6)   DRY( 12,  7)   DRY( 12,  8)   
    DRY( 12,  9)   DRY( 12, 10)   DRY( 12, 11)   DRY( 12, 12)   DRY( 12, 13)   
    DRY( 12, 14)   DRY( 12, 15)   DRY( 12, 16)   DRY( 12, 17)   DRY( 12, 18)   
    DRY( 12, 19)   DRY( 12, 20)   DRY( 12, 21)   DRY( 12, 22)   DRY( 12, 23)   
    DRY( 12, 24)   DRY( 12, 25)   DRY( 12, 26)   DRY( 12, 27)   DRY( 12, 28)   
    DRY( 12, 29)   DRY( 12, 30)   DRY( 12, 31)   DRY( 12, 32)   DRY( 12, 33)   
    DRY( 12, 34)   DRY( 12, 35)   DRY( 12, 36)   DRY( 12, 37)   DRY( 12, 38)   
    DRY( 12, 39)   DRY( 12, 40)   DRY( 12, 41)   DRY( 12, 42)   DRY( 12, 43)   
    DRY( 12, 44)   DRY( 12, 45)   DRY( 12, 46)   DRY( 12, 47)   DRY( 12, 48)   
    DRY( 12, 49)   DRY( 13,  1)   DRY( 13,  2)   DRY( 13,  3)   DRY( 13,  4)   
    DRY( 13,  5)   DRY( 13,  6)   DRY( 13,  7)   DRY( 13,  8)   DRY( 13,  9)   
    DRY( 13, 10)   DRY( 13, 11)   DRY( 13, 12)   DRY( 13, 13)   DRY( 13, 14)   
    DRY( 13, 15)   DRY( 13, 16)   DRY( 13, 17)   DRY( 13, 18)   DRY( 13, 19)   
    DRY( 13, 20)   DRY( 13, 21)   DRY( 13, 22)   DRY( 13, 23)   DRY( 13, 24)   
    DRY( 13, 25)   DRY( 13, 26)   DRY( 13, 27)   DRY( 13, 28)   DRY( 13, 29)   
    DRY( 13, 30)   DRY( 13, 31)   DRY( 13, 32)   DRY( 13, 33)   DRY( 13, 34)   
    DRY( 13, 35)   DRY( 13, 36)   DRY( 13, 37)   DRY( 13, 38)   DRY( 13, 39)   
    DRY( 13, 40)   DRY( 13, 41)   DRY( 13, 42)   DRY( 13, 43)   DRY( 13, 44)   
    DRY( 13, 45)   DRY( 13, 46)   DRY( 13, 47)   DRY( 13, 48)   DRY( 13, 49)   
    DRY( 14,  1)   DRY( 14,  2)   DRY( 14,  3)   DRY( 14,  4)   DRY( 14,  5)   
    DRY( 14,  6)   DRY( 14,  7)   DRY( 14,  8)   DRY( 14,  9)   DRY( 14, 10)   
    DRY( 14, 11)   DRY( 14, 12)   DRY( 14, 13)   DRY( 14, 14)   DRY( 14, 15)   
    DRY( 14, 16)   DRY( 14, 17)   DRY( 14, 18)   DRY( 14, 19)   DRY( 14, 20)   
    DRY( 14, 21)   DRY( 14, 22)   DRY( 14, 23)   DRY( 14, 24)   DRY( 14, 25)   
    DRY( 14, 26)   DRY( 14, 27)   DRY( 14, 28)   DRY( 14, 29)   DRY( 14, 30)   
    DRY( 14, 31)   DRY( 14, 32)   DRY( 14, 33)   DRY( 14, 34)   DRY( 14, 35)   
    DRY( 14, 36)   DRY( 14, 37)   DRY( 14, 38)   DRY( 14, 39)   DRY( 14, 40)   
    DRY( 14, 41)   DRY( 14, 42)   DRY( 14, 43)   DRY( 14, 44)   DRY( 14, 45)   
    DRY( 14, 46)   DRY( 14, 47)   DRY( 14, 48)   DRY( 14, 49)   DRY( 15,  1)   
    DRY( 15,  2)   DRY( 15,  3)   DRY( 15,  4)   DRY( 15,  5)   DRY( 15,  6)   
    DRY( 15,  7)   DRY( 15,  8)   DRY( 15,  9)   DRY( 15, 10)   DRY( 15, 11)   
    DRY( 15, 12)   DRY( 15, 13)   DRY( 15, 14)   DRY( 15, 15)   DRY( 15, 16)   
    DRY( 15, 17)   DRY( 15, 18)   DRY( 15, 19)   DRY( 15, 20)   DRY( 15, 21)   
    DRY( 15, 22)   DRY( 15, 23)   DRY( 15, 24)   DRY( 15, 25)   DRY( 15, 26)   
    DRY( 15, 27)   DRY( 15, 28)   DRY( 15, 29)   DRY( 15, 30)   DRY( 15, 31)   
    DRY( 15, 32)   DRY( 15, 33)   DRY( 15, 34)   DRY( 15, 35)   DRY( 15, 36)   
    DRY( 15, 37)   DRY( 15, 38)   DRY( 15, 39)   DRY( 15, 40)   DRY( 15, 41)   
    DRY( 15, 42)   DRY( 15, 43)   DRY( 15, 44)   DRY( 15, 45)   DRY( 15, 46)   
    DRY( 15, 47)   DRY( 15, 48)   DRY( 15, 49)   DRY( 16,  1)   DRY( 16,  2)   
    DRY( 16,  3)   DRY( 16,  4)   DRY( 16,  5)   DRY( 16,  6)   DRY( 16,  7)   
    DRY( 16,  8)   DRY( 16,  9)   DRY( 16, 10)   DRY( 16, 11)   DRY( 16, 12)   
    DRY( 16, 13)   DRY( 16, 14)   DRY( 16, 15)   DRY( 16, 16)   DRY( 16, 17)   
    DRY( 16, 18)   DRY( 16, 19)   DRY( 16, 20)   DRY( 16, 21)   DRY( 16, 22)   
    DRY( 16, 23)   DRY( 16, 24)   DRY( 16, 25)   DRY( 16, 26)   DRY( 16, 27)   
    DRY( 16, 28)   DRY( 16, 29)   DRY( 16, 30)   DRY( 16, 31)   DRY( 16, 32)   
    DRY( 16, 33)   DRY( 16, 34)   DRY( 16, 35)   DRY( 16, 36)   DRY( 16, 37)   
    DRY( 16, 38)   DRY( 16, 39)   DRY( 16, 40)   DRY( 16, 41)   DRY( 16, 42)   
    DRY( 16, 43)   DRY( 16, 44)   DRY( 16, 45)   DRY( 16, 46)   DRY( 16, 47)   
    DRY( 16, 48)   DRY( 16, 49)   DRY( 17,  1)   DRY( 17,  2)   DRY( 17,  3)   
    DRY( 17,  4)   DRY( 17,  5)   DRY( 17,  6)   DRY( 17,  7)   DRY( 17,  8)   
    DRY( 17,  9)   DRY( 17, 10)   DRY( 17, 11)   DRY( 17, 12)   DRY( 17, 13)   
    DRY( 17, 14)   DRY( 17, 15)   DRY( 17, 16)   DRY( 17, 17)   DRY( 17, 18)   
    DRY( 17, 19)   DRY( 17, 20)   DRY( 17, 21)   DRY( 17, 22)   DRY( 17, 23)   
    DRY( 17, 24)   DRY( 17, 25)   DRY( 17, 26)   DRY( 17, 27)   DRY( 17, 28)   
    DRY( 17, 29)   DRY( 17, 30)   DRY( 17, 31)   DRY( 17, 32)   DRY( 17, 33)   
    DRY( 17, 34)   DRY( 17, 35)   DRY( 17, 36)   DRY( 17, 37)   DRY( 17, 38)   
    DRY( 17, 39)   DRY( 17, 40)   DRY( 17, 41)   DRY( 17, 42)   DRY( 17, 43)   
    DRY( 17, 44)   DRY( 17, 45)   DRY( 17, 46)   DRY( 17, 47)   DRY( 17, 48)   
    DRY( 17, 49)   DRY( 18,  1)   DRY( 18,  2)   DRY( 18,  3)   DRY( 18,  4)   
    DRY( 18,  5)   DRY( 18,  6)   DRY( 18,  7)   DRY( 18,  8)   DRY( 18,  9)   
    DRY( 18, 10)   DRY( 18, 11)   DRY( 18, 12)   DRY( 18, 13)   DRY( 18, 14)   
    DRY( 18, 15)   DRY( 18, 16)   DRY( 18, 17)   DRY( 18, 18)   DRY( 18, 19)   
    DRY( 18, 20)   DRY( 18, 21)   DRY( 18, 22)   DRY( 18, 23)   DRY( 18, 24)   
    DRY( 18, 25)   DRY( 18, 26)   DRY( 18, 27)   DRY( 18, 28)   DRY( 18, 29)   
    DRY( 18, 30)   DRY( 18, 31)   DRY( 18, 32)   DRY( 18, 33)   DRY( 18, 34)   
    DRY( 18, 35)   DRY( 18, 36)   DRY( 18, 37)   DRY( 18, 38)   DRY( 18, 39)   
    DRY( 18, 40)   DRY( 18, 41)   DRY( 18, 42)   DRY( 18, 43)   DRY( 18, 44)   
    DRY( 18, 45)   DRY( 18, 46)   DRY( 18, 47)   DRY( 18, 48)   DRY( 18, 49)   
    DRY( 19,  1)   DRY( 19,  2)   DRY( 19,  3)   DRY( 19,  4)   DRY( 19,  5)   
    DRY( 19,  6)   DRY( 19,  7)   DRY( 19,  8)   DRY( 19,  9)   DRY( 19, 10)   
    DRY( 19, 11)   DRY( 19, 12)   DRY( 19, 13)   DRY( 19, 14)   DRY( 19, 15)   
    DRY( 19, 16)   DRY( 19, 17)   DRY( 19, 18)   DRY( 19, 19)   DRY( 19, 20)   
    DRY( 19, 21)   DRY( 19, 22)   DRY( 19, 23)   DRY( 19, 24)   DRY( 19, 25)   
    DRY( 19, 26)   DRY( 19, 27)   DRY( 19, 28)   DRY( 19, 29)   DRY( 19, 30)   
    DRY( 19, 31)   DRY( 19, 32)   DRY( 19, 33)   DRY( 19, 34)   DRY( 19, 35)   
    DRY( 19, 36)   DRY( 19, 37)   DRY( 19, 38)   DRY( 19, 39)   DRY( 19, 40)   
    DRY( 19, 41)   DRY( 19, 42)   DRY( 19, 43)   DRY( 19, 44)   DRY( 19, 45)   
    DRY( 19, 46)   DRY( 19, 47)   DRY( 19, 48)   DRY( 19, 49)   DRY( 20,  1)   
    DRY( 20,  2)   DRY( 20,  3)   DRY( 20,  4)   DRY( 20,  5)   DRY( 20,  6)   
    DRY( 20,  7)   DRY( 20,  8)   DRY( 20,  9)   DRY( 20, 10)   DRY( 20, 11)   
    DRY( 20, 12)   DRY( 20, 13)   DRY( 20, 14)   DRY( 20, 15)   DRY( 20, 16)   
    DRY( 20, 17)   DRY( 20, 18)   DRY( 20, 19)   DRY( 20, 20)   DRY( 20, 21)   
    DRY( 20, 22)   DRY( 20, 23)   DRY( 20, 24)   DRY( 20, 25)   DRY( 20, 26)   
    DRY( 20, 27)   DRY( 20, 28)   DRY( 20, 29)   DRY( 20, 30)   DRY( 20, 31)   
    DRY( 20, 32)   DRY( 20, 33)   DRY( 20, 34)   DRY( 20, 35)   DRY( 20, 36)   
    DRY( 20, 37)   DRY( 20, 38)   DRY( 20, 39)   DRY( 20, 40)   DRY( 20, 41)   
    DRY( 20, 42)   DRY( 20, 43)   DRY( 20, 44)   DRY( 20, 45)   DRY( 20, 46)   
    DRY( 20, 47)   DRY( 20, 48)   DRY( 20, 49)   DRY( 21,  1)   DRY( 21,  2)   
    DRY( 21,  3)   DRY( 21,  4)   DRY( 21,  5)   DRY( 21,  6)   DRY( 21,  7)   
    DRY( 21,  8)   DRY( 21,  9)   DRY( 21, 10)   DRY( 21, 11)   DRY( 21, 12)   
    DRY( 21, 13)   DRY( 21, 14)   DRY( 21, 15)   DRY( 21, 16)   DRY( 21, 17)   
    DRY( 21, 18)   DRY( 21, 19)   DRY( 21, 20)   DRY( 21, 21)   DRY( 21, 22)   
    DRY( 21, 23)   DRY( 21, 24)   DRY( 21, 25)   DRY( 21, 26)   DRY( 21, 27)   
    DRY( 21, 28)   DRY( 21, 29)   DRY( 21, 30)   DRY( 21, 31)   DRY( 21, 32)   
    DRY( 21, 33)   DRY( 21, 34)   DRY( 21, 35)   DRY( 21, 36)   DRY( 21, 37)   
    DRY( 21, 38)   DRY( 21, 39)   DRY( 21, 40)   DRY( 21, 41)   DRY( 21, 42)   
    DRY( 21, 43)   DRY( 21, 44)   DRY( 21, 45)   DRY( 21, 46)   DRY( 21, 47)   
    DRY( 21, 48)   DRY( 21, 49)   DRY( 22,  1)   DRY( 22,  2)   DRY( 22,  3)   
    DRY( 22,  4)   DRY( 22,  5)   DRY( 22,  6)   DRY( 22,  7)   DRY( 22,  8)   
    DRY( 22,  9)   DRY( 22, 10)   DRY( 22, 11)   DRY( 22, 12)   DRY( 22, 13)   
    DRY( 22, 14)   DRY( 22, 15)   DRY( 22, 16)   DRY( 22, 17)   DRY( 22, 18)   
    DRY( 22, 19)   DRY( 22, 20)   DRY( 22, 21)   DRY( 22, 22)   DRY( 22, 23)   
    DRY( 22, 24)   DRY( 22, 25)   DRY( 22, 26)   DRY( 22, 27)   DRY( 22, 28)   
    DRY( 22, 29)   DRY( 22, 30)   DRY( 22, 31)   DRY( 22, 32)   DRY( 22, 33)   
    DRY( 22, 34)   DRY( 22, 35)   DRY( 22, 36)   DRY( 22, 37)   DRY( 22, 38)   
    DRY( 22, 39)   DRY( 22, 40)   DRY( 22, 41)   DRY( 22, 42)   DRY( 22, 43)   
    DRY( 22, 44)   DRY( 22, 45)   DRY( 22, 46)   DRY( 22, 47)   DRY( 22, 48)   
    DRY( 22, 49)   DRY( 23,  1)   DRY( 23,  2)   DRY( 23,  3)   DRY( 23,  4)   
    DRY( 23,  5)   DRY( 23,  6)   DRY( 23,  7)   DRY( 23,  8)   DRY( 23,  9)   
    DRY( 23, 10)   DRY( 23, 11)   DRY( 23, 12)   DRY( 23, 13)   DRY( 23, 14)   
    DRY( 23, 15)   DRY( 23, 16)   DRY( 23, 17)   DRY( 23, 18)   DRY( 23, 19)   
    DRY( 23, 20)   DRY( 23, 21)   DRY( 23, 22)   DRY( 23, 23)   DRY( 23, 24)   
    DRY( 23, 25)   DRY( 23, 26)   DRY( 23, 27)   DRY( 23, 28)   DRY( 23, 29)   
    DRY( 23, 30)   DRY( 23, 31)   DRY( 23, 32)   DRY( 23, 33)   DRY( 23, 34)   
    DRY( 23, 35)   DRY( 23, 36)   DRY( 23, 37)   DRY( 23, 38)   DRY( 23, 39)   
    DRY( 23, 40)   DRY( 23, 41)   DRY( 23, 42)   DRY( 23, 43)   DRY( 23, 44)   
    DRY( 23, 45)   DRY( 23, 46)   DRY( 23, 47)   DRY( 23, 48)   DRY( 23, 49)   
    DRY( 24,  1)   DRY( 24,  2)   DRY( 24,  3)   DRY( 24,  4)   DRY( 24,  5)   
    DRY( 24,  6)   DRY( 24,  7)   DRY( 24,  8)   DRY( 24,  9)   DRY( 24, 10)   
    DRY( 24, 11)   DRY( 24, 12)   DRY( 24, 13)   DRY( 24, 14)   DRY( 24, 15)   
    DRY( 24, 16)   DRY( 24, 17)   DRY( 24, 18)   DRY( 24, 19)   DRY( 24, 20)   
    DRY( 24, 21)   DRY( 24, 22)   DRY( 24, 23)   DRY( 24, 24)   DRY( 24, 25)   
    DRY( 24, 26)   DRY( 24, 27)   DRY( 24, 28)   DRY( 24, 29)   DRY( 24, 30)   
    DRY( 24, 31)   DRY( 24, 32)   DRY( 24, 33)   DRY( 24, 34)   DRY( 24, 35)   
    DRY( 24, 36)   DRY( 24, 37)   DRY( 24, 38)   DRY( 24, 39)   DRY( 24, 40)   
    DRY( 24, 41)   DRY( 24, 42)   DRY( 24, 43)   DRY( 24, 44)   DRY( 24, 45)   
    DRY( 24, 46)   DRY( 24, 47)   DRY( 24, 48)   DRY( 24, 49)   DRY( 25,  1)   
    DRY( 25,  2)   DRY( 25,  3)   DRY( 25,  4)   DRY( 25,  5)   DRY( 25,  6)   
    DRY( 25,  7)   DRY( 25,  8)   DRY( 25,  9)   DRY( 25, 10)   DRY( 25, 11)   
    DRY( 25, 12)   DRY( 25, 13)   DRY( 25, 14)   DRY( 25, 15)   DRY( 25, 16)   
    DRY( 25, 17)   DRY( 25, 18)   DRY( 25, 19)   DRY( 25, 20)   DRY( 25, 21)   
    DRY( 25, 22)   DRY( 25, 23)   DRY( 25, 24)   DRY( 25, 25)   DRY( 25, 26)   
    DRY( 25, 27)   DRY( 25, 28)   DRY( 25, 29)   DRY( 25, 30)   DRY( 25, 31)   
    DRY( 25, 32)   DRY( 25, 33)   DRY( 25, 34)   DRY( 25, 35)   DRY( 25, 36)   
    DRY( 25, 37)   DRY( 25, 38)   DRY( 25, 39)   DRY( 25, 40)   DRY( 25, 41)   
    DRY( 25, 42)   DRY( 25, 43)   DRY( 25, 44)   DRY( 25, 45)   DRY( 25, 46)   
    DRY( 25, 47)   DRY( 25, 48)   DRY( 25, 49)   DRY( 26,  1)   DRY( 26,  2)   
    DRY( 26,  3)   DRY( 26,  4)   DRY( 26,  5)   DRY( 26,  6)   DRY( 26,  7)   
    DRY( 26,  8)   DRY( 26,  9)   DRY( 26, 10)   DRY( 26, 11)   DRY( 26, 12)   
    DRY( 26, 13)   DRY( 26, 14)   DRY( 26, 15)   DRY( 26, 16)   DRY( 26, 17)   
    DRY( 26, 18)   DRY( 26, 19)   DRY( 26, 20)   DRY( 26, 21)   DRY( 26, 22)   
    DRY( 26, 23)   DRY( 26, 24)   DRY( 26, 25)   DRY( 26, 26)   DRY( 26, 27)   
    DRY( 26, 28)   DRY( 26, 29)   DRY( 26, 30)   DRY( 26, 31)   DRY( 26, 32)   
    DRY( 26, 33)   DRY( 26, 34)   DRY( 26, 35)   DRY( 26, 36)   DRY( 26, 37)   
    DRY( 26, 38)   DRY( 26, 39)   DRY( 26, 40)   DRY( 26, 41)   DRY( 26, 42)   
    DRY( 26, 43)   DRY( 26, 44)   DRY( 26, 45)   DRY( 26, 46)   DRY( 26, 47)   
    DRY( 26, 48)   DRY( 26, 49)   DRY( 27,  1)   DRY( 27,  2)   DRY( 27,  3)   
    DRY( 27,  4)   DRY( 27,  5)   DRY( 27,  6)   DRY( 27,  7)   DRY( 27,  8)   
    DRY( 27,  9)   DRY( 27, 10)   DRY( 27, 11)   DRY( 27, 12)   DRY( 27, 13)   
    DRY( 27, 14)   DRY( 27, 15)   DRY( 27, 16)   DRY( 27, 17)   DRY( 27, 18)   
    DRY( 27, 19)   DRY( 27, 20)   DRY( 27, 21)   DRY( 27, 22)   DRY( 27, 23)   
    DRY( 27, 24)   DRY( 27, 25)   DRY( 27, 26)   DRY( 27, 27)   DRY( 27, 28)   
    DRY( 27, 29)   DRY( 27, 30)   DRY( 27, 31)   DRY( 27, 32)   DRY( 27, 33)   
    DRY( 27, 34)   DRY( 27, 35)   DRY( 27, 36)   DRY( 27, 37)   DRY( 27, 38)   
    DRY( 27, 39)   DRY( 27, 40)   DRY( 27, 41)   DRY( 27, 42)   DRY( 27, 43)   
    DRY( 27, 44)   DRY( 27, 45)   DRY( 27, 46)   DRY( 27, 47)   DRY( 27, 48)   
    DRY( 27, 49)   DRY( 28,  1)   DRY( 28,  2)   DRY( 28,  3)   DRY( 28,  4)   
    DRY( 28,  5)   DRY( 28,  6)   DRY( 28,  7)   DRY( 28,  8)   DRY( 28,  9)   
    DRY( 28, 10)   DRY( 28, 11)   DRY( 28, 12)   DRY( 28, 13)   DRY( 28, 14)   
    DRY( 28, 15)   DRY( 28, 16)   DRY( 28, 17)   DRY( 28, 18)   DRY( 28, 19)   
    DRY( 28, 20)   DRY( 28, 21)   DRY( 28, 22)   DRY( 28, 23)   DRY( 28, 24)   
    DRY( 28, 25)   DRY( 28, 26)   DRY( 28, 27)   DRY( 28, 28)   DRY( 28, 29)   
    DRY( 28, 30)   DRY( 28, 31)   DRY( 28, 32)   DRY( 28, 33)   DRY( 28, 34)   
    DRY( 28, 35)   DRY( 28, 36)   DRY( 28, 37)   DRY( 28, 38)   DRY( 28, 39)   
    DRY( 28, 40)   DRY( 28, 41)   DRY( 28, 42)   DRY( 28, 43)   DRY( 28, 44)   
    DRY( 28, 45)   DRY( 28, 46)   DRY( 28, 47)   DRY( 28, 48)   DRY( 28, 49)   
    DRY( 29,  1)   DRY( 29,  2)   DRY( 29,  3)   DRY( 29,  4)   DRY( 29,  5)   
    DRY( 29,  6)   DRY( 29,  7)   DRY( 29,  8)   DRY( 29,  9)   DRY( 29, 10)   
    DRY( 29, 11)   DRY( 29, 12)   DRY( 29, 13)   DRY( 29, 14)   DRY( 29, 15)   
    DRY( 29, 16)   DRY( 29, 17)   DRY( 29, 18)   DRY( 29, 19)   DRY( 29, 20)   
    DRY( 29, 21)   DRY( 29, 22)   DRY( 29, 23)   DRY( 29, 24)   DRY( 29, 25)   
    DRY( 29, 26)   DRY( 29, 27)   DRY( 29, 28)   DRY( 29, 29)   DRY( 29, 30)   
    DRY( 29, 31)   DRY( 29, 32)   DRY( 29, 33)   DRY( 29, 34)   DRY( 29, 35)   
    DRY( 29, 36)   DRY( 29, 37)   DRY( 29, 38)   DRY( 29, 39)   DRY( 29, 40)   
    DRY( 29, 41)   DRY( 29, 42)   DRY( 29, 43)   DRY( 29, 44)   DRY( 29, 45)   
    DRY( 29, 46)   DRY( 29, 47)   DRY( 29, 48)   DRY( 29, 49)   DRY( 30,  1)   
    DRY( 30,  2)   DRY( 30,  3)   DRY( 30,  4)   DRY( 30,  5)   DRY( 30,  6)   
    DRY( 30,  7)   DRY( 30,  8)   DRY( 30,  9)   DRY( 30, 10)   DRY( 30, 11)   
    DRY( 30, 12)   DRY( 30, 13)   DRY( 30, 14)   DRY( 30, 15)   DRY( 30, 16)   
    DRY( 30, 17)   DRY( 30, 18)   DRY( 30, 19)   DRY( 30, 20)   DRY( 30, 21)   
    DRY( 30, 22)   DRY( 30, 23)   DRY( 30, 24)   DRY( 30, 25)   DRY( 30, 26)   
    DRY( 30, 27)   DRY( 30, 28)   DRY( 30, 29)   DRY( 30, 30)   DRY( 30, 31)   
    DRY( 30, 32)   DRY( 30, 33)   DRY( 30, 34)   DRY( 30, 35)   DRY( 30, 36)   
    DRY( 30, 37)   DRY( 30, 38)   DRY( 30, 39)   DRY( 30, 40)   DRY( 30, 41)   
    DRY( 30, 42)   DRY( 30, 43)   DRY( 30, 44)   DRY( 30, 45)   DRY( 30, 46)   
    DRY( 30, 47)   DRY( 30, 48)   DRY( 31,  1)   DRY( 31,  2)   DRY( 31,  3)   
    DRY( 31,  4)   DRY( 31,  5)   DRY( 31,  6)   DRY( 31,  7)   DRY( 31,  8)   
    DRY( 31,  9)   DRY( 31, 10)   DRY( 31, 11)   DRY( 31, 12)   DRY( 31, 13)   
    DRY( 31, 14)   DRY( 31, 15)   DRY( 31, 16)   DRY( 31, 17)   DRY( 31, 18)   
    DRY( 31, 19)   DRY( 31, 20)   DRY( 31, 21)   DRY( 31, 22)   DRY( 31, 23)   
    DRY( 31, 24)   DRY( 31, 25)   DRY( 31, 26)   DRY( 31, 27)   DRY( 31, 28)   
    DRY( 31, 29)   DRY( 31, 30)   DRY( 31, 31)   DRY( 31, 32)   DRY( 31, 33)   
    DRY( 31, 34)   DRY( 31, 35)   DRY( 31, 36)   DRY( 31, 37)   DRY( 31, 38)   
    DRY( 31, 39)   DRY( 31, 40)   DRY( 31, 41)   DRY( 31, 42)   DRY( 31, 43)   
    DRY( 31, 44)   DRY( 31, 45)   DRY( 31, 46)   DRY( 31, 47)   DRY( 31, 48)   
    DRY( 32,  1)   DRY( 32,  2)   DRY( 32,  3)   DRY( 32,  4)   DRY( 32,  5)   
    DRY( 32,  6)   DRY( 32,  7)   DRY( 32,  8)   DRY( 32,  9)   DRY( 32, 10)   
    DRY( 32, 11)   DRY( 32, 12)   DRY( 32, 13)   DRY( 32, 14)   DRY( 32, 15)   
    DRY( 32, 16)   DRY( 32, 17)   DRY( 32, 18)   DRY( 32, 19)   DRY( 32, 20)   
    DRY( 32, 21)   DRY( 32, 22)   DRY( 32, 23)   DRY( 32, 24)   DRY( 32, 25)   
    DRY( 32, 26)   DRY( 32, 27)   DRY( 32, 28)   DRY( 32, 29)   DRY( 32, 30)   
    DRY( 32, 31)   DRY( 32, 32)   DRY( 32, 33)   DRY( 32, 34)   DRY( 32, 35)   
    DRY( 32, 36)   DRY( 32, 37)   DRY( 32, 38)   DRY( 32, 39)   DRY( 32, 40)   
    DRY( 32, 41)   DRY( 32, 42)   DRY( 32, 43)   DRY( 32, 44)   DRY( 32, 45)   
    DRY( 32, 46)   DRY( 32, 47)   DRY( 32, 48)   DRY( 33,  1)   DRY( 33,  2)   
    DRY( 33,  3)   DRY( 33,  4)   DRY( 33,  5)   DRY( 33,  6)   DRY( 33,  7)   
    DRY( 33,  8)   DRY( 33,  9)   DRY( 33, 10)   DRY( 33, 11)   DRY( 33, 12)   
    DRY( 33, 13)   DRY( 33, 14)   DRY( 33, 15)   DRY( 33, 16)   DRY( 33, 17)   
    DRY( 33, 18)   DRY( 33, 19)   DRY( 33, 20)   DRY( 33, 21)   DRY( 33, 22)   
    DRY( 33, 23)   DRY( 33, 24)   DRY( 33, 25)   DRY( 33, 26)   DRY( 33, 27)   
    DRY( 33, 28)   DRY( 33, 29)   DRY( 33, 30)   DRY( 33, 31)   DRY( 33, 32)   
    DRY( 33, 33)   DRY( 33, 34)   DRY( 33, 35)   DRY( 33, 36)   DRY( 33, 37)   
    DRY( 33, 38)   DRY( 33, 39)   DRY( 33, 40)   DRY( 33, 41)   DRY( 33, 42)   
    DRY( 33, 43)   DRY( 33, 44)   DRY( 33, 45)   DRY( 33, 46)   DRY( 33, 47)   
    DRY( 33, 48)   DRY( 34,  1)   DRY( 34,  2)   DRY( 34,  3)   DRY( 34,  4)   
    DRY( 34,  5)   DRY( 34,  6)   DRY( 34,  7)   DRY( 34,  8)   DRY( 34,  9)   
    DRY( 34, 10)   DRY( 34, 11)   DRY( 34, 12)   DRY( 34, 13)   DRY( 34, 14)   
    DRY( 34, 15)   DRY( 34, 16)   DRY( 34, 17)   DRY( 34, 18)   DRY( 34, 19)   
    DRY( 34, 20)   DRY( 34, 21)   DRY( 34, 22)   DRY( 34, 23)   DRY( 34, 24)   
    DRY( 34, 25)   DRY( 34, 26)   DRY( 34, 27)   DRY( 34, 28)   DRY( 34, 29)   
    DRY( 34, 30)   DRY( 34, 31)   DRY( 34, 32)   DRY( 34, 33)   DRY( 34, 34)   
    DRY( 34, 35)   DRY( 34, 36)   DRY( 34, 37)   DRY( 34, 38)   DRY( 34, 39)   
    DRY( 34, 40)   DRY( 34, 41)   DRY( 34, 42)   DRY( 34, 43)   DRY( 34, 44)   
    DRY( 34, 45)   DRY( 34, 46)   DRY( 34, 47)   DRY( 34, 48)   DRY( 35,  1)   
    DRY( 35,  2)   DRY( 35,  3)   DRY( 35,  4)   DRY( 35,  5)   DRY( 35,  6)   
    DRY( 35,  7)   DRY( 35,  8)   DRY( 35,  9)   DRY( 35, 10)   DRY( 35, 11)   
    DRY( 35, 12)   DRY( 35, 13)   DRY( 35, 14)   DRY( 35, 15)   DRY( 35, 16)   
    DRY( 35, 17)   DRY( 35, 18)   DRY( 35, 19)   DRY( 35, 20)   DRY( 35, 21)   
    DRY( 35, 22)   DRY( 35, 23)   DRY( 35, 24)   DRY( 35, 25)   DRY( 35, 26)   
    DRY( 35, 27)   DRY( 35, 28)   DRY( 35, 29)   DRY( 35, 30)   DRY( 35, 31)   
    DRY( 35, 32)   DRY( 35, 33)   DRY( 35, 34)   DRY( 35, 35)   DRY( 35, 36)   
    DRY( 35, 37)   DRY( 35, 38)   DRY( 35, 39)   DRY( 35, 40)   DRY( 35, 41)   
    DRY( 35, 42)   DRY( 35, 43)   DRY( 35, 44)   DRY( 35, 45)   DRY( 35, 46)   
    DRY( 35, 47)   DRY( 35, 48)   DRY( 36,  1)   DRY( 36,  2)   DRY( 36,  3)   
    DRY( 36,  4)   DRY( 36,  5)   DRY( 36,  6)   DRY( 36,  7)   DRY( 36,  8)   
    DRY( 36,  9)   DRY( 36, 10)   DRY( 36, 11)   DRY( 36, 12)   DRY( 36, 13)   
    DRY( 36, 14)   DRY( 36, 15)   DRY( 36, 16)   DRY( 36, 17)   DRY( 36, 18)   
    DRY( 36, 19)   DRY( 36, 20)   DRY( 36, 21)   DRY( 36, 22)   DRY( 36, 23)   
    DRY( 36, 24)   DRY( 36, 25)   DRY( 36, 26)   DRY( 36, 27)   DRY( 36, 28)   
    DRY( 36, 29)   DRY( 36, 30)   DRY( 36, 31)   DRY( 36, 32)   DRY( 36, 33)   
    DRY( 36, 34)   DRY( 36, 35)   DRY( 36, 36)   DRY( 36, 37)   DRY( 36, 38)   
    DRY( 36, 39)   DRY( 36, 40)   DRY( 36, 41)   DRY( 36, 42)   DRY( 36, 43)   
    DRY( 36, 44)   DRY( 36, 45)   DRY( 36, 46)   DRY( 36, 47)   DRY( 36, 48)   
    DRY( 37,  1)   DRY( 37,  2)   DRY( 37,  3)   DRY( 37,  4)   DRY( 37,  5)   
    DRY( 37,  6)   DRY( 37,  7)   DRY( 37,  8)   DRY( 37,  9)   DRY( 37, 10)   
    DRY( 37, 11)   DRY( 37, 12)   DRY( 37, 13)   DRY( 37, 14)   DRY( 37, 15)   
    DRY( 37, 16)   DRY( 37, 17)   DRY( 37, 18)   DRY( 37, 19)   DRY( 37, 20)   
    DRY( 37, 21)   DRY( 37, 22)   DRY( 37, 23)   DRY( 37, 24)   DRY( 37, 25)   
    DRY( 37, 26)   DRY( 37, 27)   DRY( 37, 28)   DRY( 37, 29)   DRY( 37, 30)   
    DRY( 37, 31)   DRY( 37, 32)   DRY( 37, 33)   DRY( 37, 34)   DRY( 37, 35)   
    DRY( 37, 36)   DRY( 37, 37)   DRY( 37, 38)   DRY( 37, 39)   DRY( 37, 40)   
    DRY( 37, 41)   DRY( 37, 42)   DRY( 37, 43)   DRY( 37, 44)   DRY( 37, 45)   
    DRY( 37, 46)   DRY( 37, 47)   DRY( 37, 48)   DRY( 38,  1)   DRY( 38,  2)   
    DRY( 38,  3)   DRY( 38,  4)   DRY( 38,  5)   DRY( 38,  6)   DRY( 38,  7)   
    DRY( 38,  8)   DRY( 38,  9)   DRY( 38, 10)   DRY( 38, 11)   DRY( 38, 12)   
    DRY( 38, 13)   DRY( 38, 14)   DRY( 38, 15)   DRY( 38, 16)   DRY( 38, 17)   
    DRY( 38, 18)   DRY( 38, 19)   DRY( 38, 20)   DRY( 38, 21)   DRY( 38, 22)   
    DRY( 38, 23)   DRY( 38, 24)   DRY( 38, 25)   DRY( 38, 26)   DRY( 38, 27)   
    DRY( 38, 28)   DRY( 38, 29)   DRY( 38, 30)   DRY( 38, 31)   DRY( 38, 32)   
    DRY( 38, 33)   DRY( 38, 34)   DRY( 38, 35)   DRY( 38, 36)   DRY( 38, 37)   
    DRY( 38, 38)   DRY( 38, 39)   DRY( 38, 40)   DRY( 38, 41)   DRY( 38, 42)   
    DRY( 38, 43)   DRY( 38, 44)   DRY( 38, 45)   DRY( 38, 46)   DRY( 38, 47)   
    DRY( 38, 48)   DRY( 39,  1)   DRY( 39,  2)   DRY( 39,  3)   DRY( 39,  4)   
    DRY( 39,  5)   DRY( 39,  6)   DRY( 39,  7)   DRY( 39,  8)   DRY( 39,  9)   
    DRY( 39, 10)   DRY( 39, 11)   DRY( 39, 12)   DRY( 39, 13)   DRY( 39, 14)   
    DRY( 39, 15)   DRY( 39, 16)   DRY( 39, 17)   DRY( 39, 18)   DRY( 39, 19)   
    DRY( 39, 20)   DRY( 39, 21)   DRY( 39, 22)   DRY( 39, 23)   DRY( 39, 24)   
    DRY( 39, 25)   DRY( 39, 26)   DRY( 39, 27)   DRY( 39, 28)   DRY( 39, 29)   
    DRY( 39, 30)   DRY( 39, 31)   DRY( 39, 32)   DRY( 39, 33)   DRY( 39, 34)   
    DRY( 39, 35)   DRY( 39, 36)   DRY( 39, 37)   DRY( 39, 38)   DRY( 39, 39)   
    DRY( 39, 40)   DRY( 39, 41)   DRY( 39, 42)   DRY( 39, 43)   DRY( 39, 44)   
    DRY( 39, 45)   DRY( 39, 46)   DRY( 39, 47)   DRY( 39, 48)   DRY( 40,  1)   
    DRY( 40,  2)   DRY( 40,  3)   DRY( 40,  4)   DRY( 40,  5)   DRY( 40,  6)   
    DRY( 40,  7)   DRY( 40,  8)   DRY( 40,  9)   DRY( 40, 10)   DRY( 40, 11)   
    DRY( 40, 12)   DRY( 40, 13)   DRY( 40, 14)   DRY( 40, 15)   DRY( 40, 16)   
    DRY( 40, 17)   DRY( 40, 18)   DRY( 40, 19)   DRY( 40, 20)   DRY( 40, 21)   
    DRY( 40, 22)   DRY( 40, 23)   DRY( 40, 24)   DRY( 40, 25)   DRY( 40, 26)   
    DRY( 40, 27)   DRY( 40, 28)   DRY( 40, 29)   DRY( 40, 30)   DRY( 40, 31)   
    DRY( 40, 32)   DRY( 40, 33)   DRY( 40, 34)   DRY( 40, 35)   DRY( 40, 36)   
    DRY( 40, 37)   DRY( 40, 38)   DRY( 40, 39)   DRY( 40, 40)   DRY( 40, 41)   
    DRY( 40, 42)   DRY( 40, 43)   DRY( 40, 44)   DRY( 40, 45)   DRY( 40, 46)   
    DRY( 40, 47)   DRY( 40, 48)   DRY( 41,  1)   DRY( 41,  2)   DRY( 41,  3)   
    DRY( 41,  4)   DRY( 41,  5)   DRY( 41,  6)   DRY( 41,  7)   DRY( 41,  8)   
    DRY( 41,  9)   DRY( 41, 10)   DRY( 41, 11)   DRY( 41, 12)   DRY( 41, 13)   
    DRY( 41, 14)   DRY( 41, 15)   DRY( 41, 16)   DRY( 41, 17)   DRY( 41, 18)   
    DRY( 41, 19)   DRY( 41, 20)   DRY( 41, 21)   DRY( 41, 22)   DRY( 41, 23)   
    DRY( 41, 24)   DRY( 41, 25)   DRY( 41, 26)   DRY( 41, 27)   DRY( 41, 28)   
    DRY( 41, 29)   DRY( 41, 30)   DRY( 41, 31)   DRY( 41, 32)   DRY( 41, 33)   
    DRY( 41, 34)   DRY( 41, 35)   DRY( 41, 36)   DRY( 41, 37)   DRY( 41, 38)   
    DRY( 41, 39)   DRY( 41, 40)   DRY( 41, 41)   DRY( 41, 42)   DRY( 41, 43)   
    DRY( 41, 44)   DRY( 41, 45)   DRY( 41, 46)   DRY( 41, 47)   DRY( 41, 48)   
    DRY( 42,  1)   DRY( 42,  2)   DRY( 42,  3)   DRY( 42,  4)   DRY( 42,  5)   
    DRY( 42,  6)   DRY( 42,  7)   DRY( 42,  8)   DRY( 42,  9)   DRY( 42, 10)   
    DRY( 42, 11)   DRY( 42, 12)   DRY( 42, 13)   DRY( 42, 14)   DRY( 42, 15)   
    DRY( 42, 16)   DRY( 42, 17)   DRY( 42, 18)   DRY( 42, 19)   DRY( 42, 20)   
    DRY( 42, 21)   DRY( 42, 22)   DRY( 42, 23)   DRY( 42, 24)   DRY( 42, 25)   
    DRY( 42, 26)   DRY( 42, 27)   DRY( 42, 28)   DRY( 42, 29)   DRY( 42, 30)   
    DRY( 42, 31)   DRY( 42, 32)   DRY( 42, 33)   DRY( 42, 34)   DRY( 42, 35)   
    DRY( 42, 36)   DRY( 42, 37)   DRY( 42, 38)   DRY( 42, 39)   DRY( 42, 40)   
    DRY( 42, 41)   DRY( 42, 42)   DRY( 42, 43)   DRY( 42, 44)   DRY( 42, 45)   
    DRY( 42, 46)   DRY( 42, 47)   DRY( 42, 48)   DRY( 43,  1)   DRY( 43,  2)   
    DRY( 43,  3)   DRY( 43,  4)   DRY( 43,  5)   DRY( 43,  6)   DRY( 43,  7)   
    DRY( 43,  8)   DRY( 43,  9)   DRY( 43, 10)   DRY( 43, 11)   DRY( 43, 12)   
    DRY( 43, 13)   DRY( 43, 14)   DRY( 43, 15)   DRY( 43, 16)   DRY( 43, 17)   
    DRY( 43, 18)   DRY( 43, 19)   DRY( 43, 20)   DRY( 43, 21)   DRY( 43, 22)   
    DRY( 43, 23)   DRY( 43, 24)   DRY( 43, 25)   DRY( 43, 26)   DRY( 43, 27)   
    DRY( 43, 28)   DRY( 43, 29)   DRY( 43, 30)   DRY( 43, 31)   DRY( 43, 32)   
    DRY( 43, 33)   DRY( 43, 34)   DRY( 43, 35)   DRY( 43, 36)   DRY( 43, 37)   
    DRY( 43, 38)   DRY( 43, 39)   DRY( 43, 40)   DRY( 43, 41)   DRY( 43, 42)   
    DRY( 43, 43)   DRY( 43, 44)   DRY( 43, 45)   DRY( 43, 46)   DRY( 43, 47)   
    DRY( 44,  1)   DRY( 44,  2)   DRY( 44,  3)   DRY( 44,  4)   DRY( 44,  5)   
    DRY( 44,  6)   DRY( 44,  7)   DRY( 44,  8)   DRY( 44,  9)   DRY( 44, 10)   
    DRY( 44, 11)   DRY( 44, 12)   DRY( 44, 13)   DRY( 44, 14)   DRY( 44, 15)   
    DRY( 44, 16)   DRY( 44, 17)   DRY( 44, 18)   DRY( 44, 19)   DRY( 44, 20)   
    DRY( 44, 21)   DRY( 44, 22)   DRY( 44, 23)   DRY( 44, 24)   DRY( 44, 25)   
    DRY( 44, 26)   DRY( 44, 27)   DRY( 44, 28)   DRY( 44, 29)   DRY( 44, 30)   
    DRY( 44, 31)   DRY( 44, 32)   DRY( 44, 33)   DRY( 44, 34)   DRY( 44, 35)   
    DRY( 44, 36)   DRY( 44, 37)   DRY( 44, 38)   DRY( 44, 39)   DRY( 44, 40)   
    DRY( 44, 41)   DRY( 44, 42)   DRY( 44, 43)   DRY( 44, 44)   DRY( 44, 45)   
    DRY( 44, 46)   DRY( 44, 47)   DRY( 45,  2)   DRY( 45,  3)   DRY( 45,  4)   
    DRY( 45,  5)   DRY( 45,  6)   DRY( 45,  7)   DRY( 45,  8)   DRY( 45,  9)   
    DRY( 45, 10)   DRY( 45, 11)   DRY( 45, 12)   DRY( 45, 13)   DRY( 45, 14)   
    DRY( 45, 15)   DRY( 45, 16)   DRY( 45, 17)   DRY( 45, 18)   DRY( 45, 19)   
    DRY( 45, 20)   DRY( 45, 21)   DRY( 45, 22)   DRY( 45, 23)   DRY( 45, 24)   
    DRY( 45, 25)   DRY( 45, 26)   DRY( 45, 27)   DRY( 45, 28)   DRY( 45, 29)   
    DRY( 45, 30)   DRY( 45, 31)   DRY( 45, 32)   DRY( 45, 33)   DRY( 45, 34)   
    DRY( 45, 35)   DRY( 45, 36)   DRY( 45, 37)   DRY( 45, 38)   DRY( 45, 39)   
    DRY( 45, 40)   DRY( 45, 41)   DRY( 45, 42)   DRY( 45, 43)   DRY( 45, 44)   
    DRY( 45, 45)   DRY( 45, 46)   DRY( 45, 47)   DRY( 46,  3)   DRY( 46,  4)   
    DRY( 46,  5)   DRY( 46,  6)   DRY( 46,  7)   DRY( 46,  8)   DRY( 46,  9)   
    DRY( 46, 10)   DRY( 46, 11)   DRY( 46, 12)   DRY( 46, 13)   DRY( 46, 14)   
    DRY( 46, 15)   DRY( 46, 16)   DRY( 46, 17)   DRY( 46, 18)   DRY( 46, 19)   
    DRY( 46, 20)   DRY( 46, 21)   DRY( 46, 22)   DRY( 46, 23)   DRY( 46, 24)   
    DRY( 46, 25)   DRY( 46, 26)   DRY( 46, 27)   DRY( 46, 28)   DRY( 46, 29)   
    DRY( 46, 30)   DRY( 46, 31)   DRY( 46, 32)   DRY( 46, 33)   DRY( 46, 34)   
    DRY( 46, 35)   DRY( 46, 36)   DRY( 46, 37)   DRY( 46, 38)   DRY( 46, 39)   
    DRY( 46, 40)   DRY( 46, 41)   DRY( 46, 42)   DRY( 46, 43)   DRY( 46, 44)   
    DRY( 46, 45)   DRY( 46, 46)   DRY( 46, 47)   DRY( 47,  4)   DRY( 47,  5)   
    DRY( 47,  6)   DRY( 47,  7)   DRY( 47,  8)   DRY( 47,  9)   DRY( 47, 10)   
    DRY( 47, 11)   DRY( 47, 12)   DRY( 47, 13)   DRY( 47, 14)   DRY( 47, 15)   
    DRY( 47, 16)   DRY( 47, 17)   DRY( 47, 18)   DRY( 47, 19)   DRY( 47, 20)   
    DRY( 47, 21)   DRY( 47, 22)   DRY( 47, 23)   DRY( 47, 24)   DRY( 47, 25)   
    DRY( 47, 26)   DRY( 47, 27)   DRY( 47, 28)   DRY( 47, 29)   DRY( 47, 30)   
    DRY( 47, 31)   DRY( 47, 32)   DRY( 47, 33)   DRY( 47, 34)   DRY( 47, 35)   
    DRY( 47, 36)   DRY( 47, 37)   DRY( 47, 38)   DRY( 47, 39)   DRY( 47, 40)   
    DRY( 47, 41)   DRY( 47, 42)   DRY( 47, 43)   DRY( 47, 44)   DRY( 47, 45)   
    DRY( 47, 46)   DRY( 47, 47)   DRY( 48,  5)   DRY( 48,  6)   DRY( 48,  7)   
    DRY( 48,  8)   DRY( 48,  9)   DRY( 48, 10)   DRY( 48, 11)   DRY( 48, 12)   
    DRY( 48, 13)   DRY( 48, 14)   DRY( 48, 15)   DRY( 48, 16)   DRY( 48, 17)   
    DRY( 48, 18)   DRY( 48, 19)   DRY( 48, 20)   DRY( 48, 21)   DRY( 48, 22)   
    DRY( 48, 23)   DRY( 48, 24)   DRY( 48, 25)   DRY( 48, 26)   DRY( 48, 27)   
    DRY( 48, 28)   DRY( 48, 29)   DRY( 48, 30)   DRY( 48, 31)   DRY( 48, 32)   
    DRY( 48, 33)   DRY( 48, 34)   DRY( 48, 35)   DRY( 48, 36)   DRY( 48, 37)   
    DRY( 48, 38)   DRY( 48, 39)   DRY( 48, 40)   DRY( 48, 41)   DRY( 48, 42)   
    DRY( 48, 43)   DRY( 48, 44)   DRY( 48, 45)   DRY( 48, 46)   DRY( 48, 47)   
    DRY( 49,  6)   DRY( 49,  7)   DRY( 49,  8)   DRY( 49,  9)   DRY( 49, 10)   
    DRY( 49, 11)   DRY( 49, 12)   DRY( 49, 13)   DRY( 49, 14)   DRY( 49, 15)   
    DRY( 49, 16)   DRY( 49, 17)   DRY( 49, 18)   DRY( 49, 19)   DRY( 49, 20)   
    DRY( 49, 21)   DRY( 49, 22)   DRY( 49, 23)   DRY( 49, 24)   DRY( 49, 25)   
    DRY( 49, 26)   DRY( 49, 27)   DRY( 49, 28)   DRY( 49, 29)   DRY( 49, 30)   
    DRY( 49, 31)   DRY( 49, 32)   DRY( 49, 33)   DRY( 49, 34)   DRY( 49, 35)   
    DRY( 49, 36)   DRY( 49, 37)   DRY( 49, 38)   DRY( 49, 39)   DRY( 49, 40)   
    DRY( 49, 41)   DRY( 49, 42)   DRY( 49, 43)   DRY( 49, 44)   DRY( 49, 45)   
    DRY( 49, 46)   DRY( 49, 47)   DRY( 50,  7)   DRY( 50,  8)   DRY( 50,  9)   
    DRY( 50, 10)   DRY( 50, 11)   DRY( 50, 12)   DRY( 50, 13)   DRY( 50, 14)   
    DRY( 50, 15)   DRY( 50, 16)   DRY( 50, 17)   DRY( 50, 18)   DRY( 50, 19)   
    DRY( 50, 20)   DRY( 50, 21)   DRY( 50, 22)   DRY( 50, 23)   DRY( 50, 24)   
    DRY( 50, 25)   DRY( 50, 26)   DRY( 50, 27)   DRY( 50, 28)   DRY( 50, 29)   
    DRY( 50, 30)   DRY( 50, 31)   DRY( 50, 32)   DRY( 50, 33)   DRY( 50, 34)   
    DRY( 50, 35)   DRY( 50, 36)   DRY( 50, 37)   DRY( 50, 38)   DRY( 50, 39)   
    DRY( 50, 40)   DRY( 50, 41)   DRY( 50, 42)   DRY( 50, 43)   DRY( 50, 44)   
    DRY( 50, 45)   DRY( 50, 46)   DRY( 50, 47)   

 CELL CONVERSIONS FOR ITER.=  2  LAYER=  2  STEP=  1  PERIOD=   1   (ROW,COL)
    DRY(  1,  9)   DRY(  1, 10)   DRY(  1, 11)   DRY(  1, 12)   DRY(  1, 13)   
    DRY(  1, 14)   DRY(  1, 15)   DRY(  1, 16)   DRY(  1, 17)   DRY(  1, 18)   
    DRY(  1, 19)   DRY(  1, 20)   DRY(  1, 21)   DRY(  1, 22)   DRY(  1, 23)   
    DRY(  1, 24)   DRY(  1, 25)   DRY(  1, 26)   DRY(  1, 27)   DRY(  1, 28)   
    DRY(  1, 29)   DRY(  1, 30)   DRY(  1, 31)   DRY(  1, 32)   DRY(  1, 33)   
    DRY(  1, 34)   DRY(  1, 35)   DRY(  1, 36)   DRY(  1, 37)   DRY(  1, 38)   
    DRY(  1, 39)   DRY(  1, 40)   DRY(  1, 41)   DRY(  1, 42)   DRY(  1, 43)   
    DRY(  1, 44)   DRY(  1, 45)   DRY(  1, 46)   DRY(  1, 47)   DRY(  1, 48)   
    DRY(  2,  8)   DRY(  2,  9)   DRY(  2, 10)   DRY(  2, 11)   DRY(  2, 12)   
    DRY(  2, 13)   DRY(  2, 14)   DRY(  2, 15)   DRY(  2, 16)   DRY(  2, 17)   
    DRY(  2, 18)   DRY(  2, 19)   DRY(  2, 20)   DRY(  2, 21)   DRY(  2, 22)   
    DRY(  2, 23)   DRY(  2, 24)   DRY(  2, 25)   DRY(  2, 26)   DRY(  2, 27)   
    DRY(  2, 28)   DRY(  2, 29)   DRY(  2, 30)   DRY(  2, 31)   DRY(  2, 32)   
    DRY(  2, 33)   DRY(  2, 34)   DRY(  2, 35)   DRY(  2, 36)   DRY(  2, 37)   
    DRY(  2, 38)   DRY(  2, 39)   DRY(  2, 40)   DRY(  2, 41)   DRY(  2, 42)   
    DRY(  2, 43)   DRY(  2, 44)   DRY(  2, 45)   DRY(  2, 46)   DRY(  2, 47)   
    DRY(  2, 48)   DRY(  3,  7)   DRY(  3,  8)   DRY(  3,  9)   DRY(  3, 10)   
    DRY(  3, 11)   DRY(  3, 12)   DRY(  3, 13)   DRY(  3, 14)   DRY(  3, 15)   
    DRY(  3, 16)   DRY(  3, 17)   DRY(  3, 18)   DRY(  3, 19)   DRY(  3, 20)   
    DRY(  3, 21)   DRY(  3, 22)   DRY(  3, 23)   DRY(  3, 24)   DRY(  3, 25)   
    DRY(  3, 26)   DRY(  3, 27)   DRY(  3, 28)   DRY(  3, 29)   DRY(  3, 30)   
    DRY(  3, 31)   DRY(  3, 32)   DRY(  3, 33)   DRY(  3, 34)   DRY(  3, 35)   
    DRY(  3, 36)   DRY(  3, 37)   DRY(  3, 38)   DRY(  3, 39)   DRY(  3, 40)   
    DRY(  3, 41)   DRY(  3, 42)   DRY(  3, 43)   DRY(  3, 44)   DRY(  3, 45)   
    DRY(  3, 46)   DRY(  3, 47)   DRY(  3, 48)   DRY(  4,  6)   DRY(  4,  7)   
    DRY(  4,  8)   DRY(  4,  9)   DRY(  4, 10)   DRY(  4, 11)   DRY(  4, 12)   
    DRY(  4, 13)   DRY(  4, 14)   DRY(  4, 15)   DRY(  4, 16)   DRY(  4, 17)   
    DRY(  4, 18)   DRY(  4, 19)   DRY(  4, 20)   DRY(  4, 21)   DRY(  4, 22)   
    DRY(  4, 23)   DRY(  4, 24)   DRY(  4, 25)   DRY(  4, 26)   DRY(  4, 27)   
    DRY(  4, 28)   DRY(  4, 29)   DRY(  4, 30)   DRY(  4, 31)   DRY(  4, 32)   
    DRY(  4, 33)   DRY(  4, 34)   DRY(  4, 35)   DRY(  4, 36)   DRY(  4, 37)   
    DRY(  4, 38)   DRY(  4, 39)   DRY(  4, 40)   DRY(  4, 41)   DRY(  4, 42)   
    DRY(  4, 43)   DRY(  4, 44)   DRY(  4, 45)   DRY(  4, 46)   DRY(  4, 47)   
    DRY(  4, 48)   DRY(  5,  5)   DRY(  5,  6)   DRY(  5,  7)   DRY(  5,  8)   
    DRY(  5,  9)   DRY(  5, 10)   DRY(  5, 11)   DRY(  5, 12)   DRY(  5, 13)   
    DRY(  5, 14)   DRY(  5, 15)   DRY(  5, 16)   DRY(  5, 17)   DRY(  5, 18)   
    DRY(  5, 19)   DRY(  5, 20)   DRY(  5, 21)   DRY(  5, 22)   DRY(  5, 23)   
    DRY(  5, 24)   DRY(  5, 25)   DRY(  5, 26)   DRY(  5, 27)   DRY(  5, 28)   
    DRY(  5, 29)   DRY(  5, 30)   DRY(  5, 31)   DRY(  5, 32)   DRY(  5, 33)   
    DRY(  5, 34)   DRY(  5, 35)   DRY(  5, 36)   DRY(  5, 37)   DRY(  5, 38)   
    DRY(  5, 39)   DRY(  5, 40)   DRY(  5, 41)   DRY(  5, 42)   DRY(  5, 43)   
    DRY(  5, 44)   DRY(  5, 45)   DRY(  5, 46)   DRY(  5, 47)   DRY(  5, 48)   
    DRY(  6,  4)   DRY(  6,  5)   DRY(  6,  6)   DRY(  6,  7)   DRY(  6,  8)   
    DRY(  6,  9)   DRY(  6, 10)   DRY(  6, 11)   DRY(  6, 12)   DRY(  6, 13)   
    DRY(  6, 14)   DRY(  6, 15)   DRY(  6, 16)   DRY(  6, 17)   DRY(  6, 18)   
    DRY(  6, 19)   DRY(  6, 20)   DRY(  6, 21)   DRY(  6, 22)   DRY(  6, 23)   
    DRY(  6, 24)   DRY(  6, 25)   DRY(  6, 26)   DRY(  6, 27)   DRY(  6, 28)   
    DRY(  6, 29)   DRY(  6, 30)   DRY(  6, 31)   DRY(  6, 32)   DRY(  6, 33)   
    DRY(  6, 34)   DRY(  6, 35)   DRY(  6, 36)   DRY(  6, 37)   DRY(  6, 38)   
    DRY(  6, 39)   DRY(  6, 40)   DRY(  6, 41)   DRY(  6, 42)   DRY(  6, 43)   
    DRY(  6, 44)   DRY(  6, 45)   DRY(  6, 46)   DRY(  6, 47)   DRY(  6, 48)   
    DRY(  7,  3)   DRY(  7,  4)   DRY(  7,  5)   DRY(  7,  6)   DRY(  7,  7)   
    DRY(  7,  8)   DRY(  7,  9)   DRY(  7, 10)   DRY(  7, 11)   DRY(  7, 12)   
    DRY(  7, 13)   DRY(  7, 14)   DRY(  7, 15)   DRY(  7, 16)   DRY(  7, 17)   
    DRY(  7, 18)   DRY(  7, 19)   DRY(  7, 20)   DRY(  7, 21)   DRY(  7, 22)   
    DRY(  7, 23)   DRY(  7, 24)   DRY(  7, 25)   DRY(  7, 26)   DRY(  7, 27)   
    DRY(  7, 28)   DRY(  7, 29)   DRY(  7, 30)   DRY(  7, 31)   DRY(  7, 32)   
    DRY(  7, 33)   DRY(  7, 34)   DRY(  7, 35)   DRY(  7, 36)   DRY(  7, 37)   
    DRY(  7, 38)   DRY(  7, 39)   DRY(  7, 40)   DRY(  7, 41)   DRY(  7, 42)   
    DRY(  7, 43)   DRY(  7, 44)   DRY(  7, 45)   DRY(  7, 46)   DRY(  7, 47)   
    DRY(  7, 48)   DRY(  8,  2)   DRY(  8,  3)   DRY(  8,  4)   DRY(  8,  5)   
    DRY(  8,  6)   DRY(  8,  7)   DRY(  8,  8)   DRY(  8,  9)   DRY(  8, 10)   
    DRY(  8, 11)   DRY(  8, 12)   DRY(  8, 13)   DRY(  8, 14)   DRY(  8, 15)   
    DRY(  8, 16)   DRY(  8, 17)   DRY(  8, 18)   DRY(  8, 19)   DRY(  8, 20)   
    DRY(  8, 21)   DRY(  8, 22)   DRY(  8, 23)   DRY(  8, 24)   DRY(  8, 25)   
    DRY(  8, 26)   DRY(  8, 27)   DRY(  8, 28)   DRY(  8, 29)   DRY(  8, 30)   
    DRY(  8, 31)   DRY(  8, 32)   DRY(  8, 33)   DRY(  8, 34)   DRY(  8, 35)   
    DRY(  8, 36)   DRY(  8, 37)   DRY(  8, 38)   DRY(  8, 39)   DRY(  8, 40)   
    DRY(  8, 41)   DRY(  8, 42)   DRY(  8, 43)   DRY(  8, 44)   DRY(  8, 45)   
    DRY(  8, 46)   DRY(  8, 47)   DRY(  8, 48)   DRY(  9,  1)   DRY(  9,  2)   
    DRY(  9,  3)   DRY(  9,  4)   DRY(  9,  5)   DRY(  9,  6)   DRY(  9,  7)   
    DRY(  9,  8)   DRY(  9,  9)   DRY(  9, 10)   DRY(  9, 11)   DRY(  9, 12)   
    DRY(  9, 13)   DRY(  9, 14)   DRY(  9, 15)   DRY(  9, 16)   DRY(  9, 17)   
    DRY(  9, 18)   DRY(  9, 19)   DRY(  9, 20)   DRY(  9, 21)   DRY(  9, 22)   
    DRY(  9, 23)   DRY(  9, 24)   DRY(  9, 25)   DRY(  9, 26)   DRY(  9, 27)   
    DRY(  9, 28)   DRY(  9, 29)   DRY(  9, 30)   DRY(  9, 31)   DRY(  9, 32)   
    DRY(  9, 33)   DRY(  9, 34)   DRY(  9, 35)   DRY(  9, 36)   DRY(  9, 37)   
    DRY(  9, 38)   DRY(  9, 39)   DRY(  9, 40)   DRY(  9, 41)   DRY(  9, 42)   
    DRY(  9, 43)   DRY(  9, 44)   DRY(  9, 45)   DRY(  9, 46)   DRY(  9, 47)   
    DRY(  9, 48)   DRY( 10,  1)   DRY( 10,  2)   DRY( 10,  3)   DRY( 10,  4)   
    DRY( 10,  5)   DRY( 10,  6)   DRY( 10,  7)   DRY( 10,  8)   DRY( 10,  9)   
    DRY( 10, 10)   DRY( 10, 11)   DRY( 10, 12)   DRY( 10, 13)   DRY( 10, 14)   
    DRY( 10, 15)   DRY( 10, 16)   DRY( 10, 17)   DRY( 10, 18)   DRY( 10, 19)   
    DRY( 10, 20)   DRY( 10, 21)   DRY( 10, 22)   DRY( 10, 23)   DRY( 10, 24)   
    DRY( 10, 25)   DRY( 10, 26)   DRY( 10, 27)   DRY( 10, 28)   DRY( 10, 29)   
    DRY( 10, 30)   DRY( 10, 31)   DRY( 10, 32)   DRY( 10, 33)   DRY( 10, 34)   
    DRY( 10, 35)   DRY( 10, 36)   DRY( 10, 37)   DRY( 10, 38)   DRY( 10, 39)   
    DRY( 10, 40)   DRY( 10, 41)   DRY( 10, 42)   DRY( 10, 43)   DRY( 10, 44)   
    DRY( 10, 45)   DRY( 10, 46)   DRY( 10, 47)   DRY( 10, 48)   DRY( 11,  1)   
    DRY( 11,  2)   DRY( 11,  3)   DRY( 11,  4)   DRY( 11,  5)   DRY( 11,  6)   
    DRY( 11,  7)   DRY( 11,  8)   DRY( 11,  9)   DRY( 11, 10)   DRY( 11, 11)   
    DRY( 11, 12)   DRY( 11, 13)   DRY( 11, 14)   DRY( 11, 15)   DRY( 11, 16)   
    DRY( 11, 17)   DRY( 11, 18)   DRY( 11, 19)   DRY( 11, 20)   DRY( 11, 21)   
    DRY( 11, 22)   DRY( 11, 23)   DRY( 11, 24)   DRY( 11, 25)   DRY( 11, 26)   
    DRY( 11, 27)   DRY( 11, 28)   DRY( 11, 29)   DRY( 11, 30)   DRY( 11, 31)   
    DRY( 11, 32)   DRY( 11, 33)   DRY( 11, 34)   DRY( 11, 35)   DRY( 11, 36)   
    DRY( 11, 37)   DRY( 11, 38)   DRY( 11, 39)   DRY( 11, 40)   DRY( 11, 41)   
    DRY( 11, 42)   DRY( 11, 43)   DRY( 11, 44)   DRY( 11, 45)   DRY( 11, 46)   
    DRY( 11, 47)   DRY( 11, 48)   DRY( 12,  1)   DRY( 12,  2)   DRY( 12,  3)   
    DRY( 12,  4)   DRY( 12,  5)   DRY( 12,  6)   DRY( 12,  7)   DRY( 12,  8)   
    DRY( 12,  9)   DRY( 12, 10)   DRY( 12, 11)   DRY( 12, 12)   DRY( 12, 13)   
    DRY( 12, 14)   DRY( 12, 15)   DRY( 12, 16)   DRY( 12, 17)   DRY( 12, 18)   
    DRY( 12, 19)   DRY( 12, 20)   DRY( 12, 21)   DRY( 12, 22)   DRY( 12, 23)   
    DRY( 12, 24)   DRY( 12, 25)   DRY( 12, 26)   DRY( 12, 27)   DRY( 12, 28)   
    DRY( 12, 29)   DRY( 12, 30)   DRY( 12, 31)   DRY( 12, 32)   DRY( 12, 33)   
    DRY( 12, 34)   DRY( 12, 35)   DRY( 12, 36)   DRY( 12, 37)   DRY( 12, 38)   
    DRY( 12, 39)   DRY( 12, 40)   DRY( 12, 41)   DRY( 12, 42)   DRY( 12, 43)   
    DRY( 12, 44)   DRY( 12, 45)   DRY( 12, 46)   DRY( 12, 47)   DRY( 12, 48)   
    DRY( 13,  1)   DRY( 13,  2)   DRY( 13,  3)   DRY( 13,  4)   DRY( 13,  5)   
    DRY( 13,  6)   DRY( 13,  7)   DRY( 13,  8)   DRY( 13,  9)   DRY( 13, 10)   
    DRY( 13, 11)   DRY( 13, 12)   DRY( 13, 13)   DRY( 13, 14)   DRY( 13, 15)   
    DRY( 13, 16)   DRY( 13, 17)   DRY( 13, 18)   DRY( 13, 19)   DRY( 13, 20)   
    DRY( 13, 21)   DRY( 13, 22)   DRY( 13, 23)   DRY( 13, 24)   DRY( 13, 25)   
    DRY( 13, 26)   DRY( 13, 27)   DRY( 13, 28)   DRY( 13, 29)   DRY( 13, 30)   
    DRY( 13, 31)   DRY( 13, 32)   DRY( 13, 33)   DRY( 13, 34)   DRY( 13, 35)   
    DRY( 13, 36)   DRY( 13, 37)   DRY( 13, 38)   DRY( 13, 39)   DRY( 13, 40)   
    DRY( 13, 41)   DRY( 13, 42)   DRY( 13, 43)   DRY( 13, 44)   DRY( 13, 45)   
    DRY( 13, 46)   DRY( 13, 47)   DRY( 13, 48)   DRY( 14,  1)   DRY( 14,  2)   
    DRY( 14,  3)   DRY( 14,  4)   DRY( 14,  5)   DRY( 14,  6)   DRY( 14,  7)   
    DRY( 14,  8)   DRY( 14,  9)   DRY( 14, 10)   DRY( 14, 11)   DRY( 14, 12)   
    DRY( 14, 13)   DRY( 14, 14)   DRY( 14, 15)   DRY( 14, 16)   DRY( 14, 17)   
    DRY( 14, 18)   DRY( 14, 19)   DRY( 14, 20)   DRY( 14, 21)   DRY( 14, 22)   
    DRY( 14, 23)   DRY( 14, 24)   DRY( 14, 25)   DRY( 14, 26)   DRY( 14, 27)   
    DRY( 14, 28)   DRY( 14, 29)   DRY( 14, 30)   DRY( 14, 31)   DRY( 14, 32)   
    DRY( 14, 33)   DRY( 14, 34)   DRY( 14, 35)   DRY( 14, 36)   DRY( 14, 37)   
    DRY( 14, 38)   DRY( 14, 39)   DRY( 14, 40)   DRY( 14, 41)   DRY( 14, 42)   
    DRY( 14, 43)   DRY( 14, 44)   DRY( 14, 45)   DRY( 14, 46)   DRY( 14, 47)   
    DRY( 14, 48)   DRY( 15,  1)   DRY( 15,  2)   DRY( 15,  3)   DRY( 15,  4)   
    DRY( 15,  5)   DRY( 15,  6)   DRY( 15,  7)   DRY( 15,  8)   DRY( 15,  9)   
    DRY( 15, 10)   DRY( 15, 11)   DRY( 15, 12)   DRY( 15, 13)   DRY( 15, 14)   
    DRY( 15, 15)   DRY( 15, 16)   DRY( 15, 17)   DRY( 15, 18)   DRY( 15, 19)   
    DRY( 15, 20)   DRY( 15, 21)   DRY( 15, 22)   DRY( 15, 23)   DRY( 15, 24)   
    DRY( 15, 25)   DRY( 15, 26)   DRY( 15, 27)   DRY( 15, 28)   DRY( 15, 29)   
    DRY( 15, 30)   DRY( 15, 31)   DRY( 15, 32)   DRY( 15, 33)   DRY( 15, 34)   
    DRY( 15, 35)   DRY( 15, 36)   DRY( 15, 37)   DRY( 15, 38)   DRY( 15, 39)   
    DRY( 15, 40)   DRY( 15, 41)   DRY( 15, 42)   DRY( 15, 43)   DRY( 15, 44)   
    DRY( 15, 45)   DRY( 15, 46)   DRY( 15, 47)   DRY( 15, 48)   DRY( 16,  1)   
    DRY( 16,  2)   DRY( 16,  3)   DRY( 16,  4)   DRY( 16,  5)   DRY( 16,  6)   
    DRY( 16,  7)   DRY( 16,  8)   DRY( 16,  9)   DRY( 16, 10)   DRY( 16, 11)   
    DRY( 16, 12)   DRY( 16, 13)   DRY( 16, 14)   DRY( 16, 15)   DRY( 16, 16)   
    DRY( 16, 17)   DRY( 16, 18)   DRY( 16, 19)   DRY( 16, 20)   DRY( 16, 21)   
    DRY( 16, 22)   DRY( 16, 23)   DRY( 16, 24)   DRY( 16, 25)   DRY( 16, 26)   
    DRY( 16, 27)   DRY( 16, 28)   DRY( 16, 29)   DRY( 16, 30)   DRY( 16, 31)   
    DRY( 16, 32)   DRY( 16, 33)   DRY( 16, 34)   DRY( 16, 35)   DRY( 16, 36)   
    DRY( 16, 37)   DRY( 16, 38)   DRY( 16, 39)   DRY( 16, 40)   DRY( 16, 41)   
    DRY( 16, 42)   DRY( 16, 43)   DRY( 16, 44)   DRY( 16, 45)   DRY( 16, 46)   
    DRY( 16, 47)   DRY( 16, 48)   DRY( 16, 49)   DRY( 17,  1)   DRY( 17,  2)   
    DRY( 17,  3)   DRY( 17,  4)   DRY( 17,  5)   DRY( 17,  6)   DRY( 17,  7)   
    DRY( 17,  8)   DRY( 17,  9)   DRY( 17, 10)   DRY( 17, 11)   DRY( 17, 12)   
    DRY( 17, 13)   DRY( 17, 14)   DRY( 17, 15)   DRY( 17, 16)   DRY( 17, 17)   
    DRY( 17, 18)   DRY( 17, 19)   DRY( 17, 20)   DRY( 17, 21)   DRY( 17, 22)   
    DRY( 17, 23)   DRY( 17, 24)   DRY( 17, 25)   DRY( 17, 26)   DRY( 17, 27)   
    DRY( 17, 28)   DRY( 17, 29)   DRY( 17, 30)   DRY( 17, 31)   DRY( 17, 32)   
    DRY( 17, 33)   DRY( 17, 34)   DRY( 17, 35)   DRY( 17, 36)   DRY( 17, 37)   
    DRY( 17, 38)   DRY( 17, 39)   DRY( 17, 40)   DRY( 17, 41)   DRY( 17, 42)   
    DRY( 17, 43)   DRY( 17, 44)   DRY( 17, 45)   DRY( 17, 46)   DRY( 17, 47)   
    DRY( 17, 48)   DRY( 17, 49)   DRY( 18,  1)   DRY( 18,  2)   DRY( 18,  3)   
    DRY( 18,  4)   DRY( 18,  5)   DRY( 18,  6)   DRY( 18,  7)   DRY( 18,  8)   
    DRY( 18,  9)   DRY( 18, 10)   DRY( 18, 11)   DRY( 18, 12)   DRY( 18, 13)   
    DRY( 18, 14)   DRY( 18, 15)   DRY( 18, 16)   DRY( 18, 17)   DRY( 18, 18)   
    DRY( 18, 19)   DRY( 18, 20)   DRY( 18, 21)   DRY( 18, 22)   DRY( 18, 23)   
    DRY( 18, 24)   DRY( 18, 25)   DRY( 18, 26)   DRY( 18, 27)   DRY( 18, 28)   
    DRY( 18, 29)   DRY( 18, 30)   DRY( 18, 31)   DRY( 18, 32)   DRY( 18, 33)   
    DRY( 18, 34)   DRY( 18, 35)   DRY( 18, 36)   DRY( 18, 37)   DRY( 18, 38)   
    DRY( 18, 39)   DRY( 18, 40)   DRY( 18, 41)   DRY( 18, 42)   DRY( 18, 43)   
    DRY( 18, 44)   DRY( 18, 45)   DRY( 18, 46)   DRY( 18, 47)   DRY( 18, 48)   
    DRY( 18, 49)   DRY( 19,  1)   DRY( 19,  2)   DRY( 19,  3)   DRY( 19,  4)   
    DRY( 19,  5)   DRY( 19,  6)   DRY( 19,  7)   DRY( 19,  8)   DRY( 19,  9)   
    DRY( 19, 10)   DRY( 19, 11)   DRY( 19, 12)   DRY( 19, 13)   DRY( 19, 14)   
    DRY( 19, 15)   DRY( 19, 16)   DRY( 19, 17)   DRY( 19, 18)   DRY( 19, 19)   
    DRY( 19, 20)   DRY( 19, 21)   DRY( 19, 22)   DRY( 19, 23)   DRY( 19, 24)   
    DRY( 19, 25)   DRY( 19, 26)   DRY( 19, 27)   DRY( 19, 28)   DRY( 19, 29)   
    DRY( 19, 30)   DRY( 19, 31)   DRY( 19, 32)   DRY( 19, 33)   DRY( 19, 34)   
    DRY( 19, 35)   DRY( 19, 36)   DRY( 19, 37)   DRY( 19, 38)   DRY( 19, 39)   
    DRY( 19, 40)   DRY( 19, 41)   DRY( 19, 42)   DRY( 19, 43)   DRY( 19, 44)   
    DRY( 19, 45)   DRY( 19, 46)   DRY( 19, 47)   DRY( 19, 48)   DRY( 19, 49)   
    DRY( 20,  1)   DRY( 20,  2)   DRY( 20,  3)   DRY( 20,  4)   DRY( 20,  5)   
    DRY( 20,  6)   DRY( 20,  7)   DRY( 20,  8)   DRY( 20,  9)   DRY( 20, 10)   
    DRY( 20, 11)   DRY( 20, 12)   DRY( 20, 13)   DRY( 20, 14)   DRY( 20, 15)   
    DRY( 20, 16)   DRY( 20, 17)   DRY( 20, 18)   DRY( 20, 19)   DRY( 20, 20)   
    DRY( 20, 21)   DRY( 20, 22)   DRY( 20, 23)   DRY( 20, 24)   DRY( 20, 25)   
    DRY( 20, 26)   DRY( 20, 27)   DRY( 20, 28)   DRY( 20, 29)   DRY( 20, 30)   
    DRY( 20, 31)   DRY( 20, 32)   DRY( 20, 33)   DRY( 20, 34)   DRY( 20, 35)   
    DRY( 20, 36)   DRY( 20, 37)   DRY( 20, 38)   DRY( 20, 39)   DRY( 20, 40)   
    DRY( 20, 41)   DRY( 20, 42)   DRY( 20, 43)   DRY( 20, 44)   DRY( 20, 45)   
    DRY( 20, 46)   DRY( 20, 47)   DRY( 20, 48)   DRY( 20, 49)   DRY( 21,  1)   
    DRY( 21,  2)   DRY( 21,  3)   DRY( 21,  4)   DRY( 21,  5)   DRY( 21,  6)   
    DRY( 21,  7)   DRY( 21,  8)   DRY( 21,  9)   DRY( 21, 10)   DRY( 21, 11)   
    DRY( 21, 12)   DRY( 21, 13)   DRY( 21, 14)   DRY( 21, 15)   DRY( 21, 16)   
    DRY( 21, 17)   DRY( 21, 18)   DRY( 21, 19)   DRY( 21, 20)   DRY( 21, 21)   
    DRY( 21, 22)   DRY( 21, 23)   DRY( 21, 24)   DRY( 21, 25)   DRY( 21, 26)   
    DRY( 21, 27)   DRY( 21, 28)   DRY( 21, 29)   DRY( 21, 30)   DRY( 21, 31)   
    DRY( 21, 32)   DRY( 21, 33)   DRY( 21, 34)   DRY( 21, 35)   DRY( 21, 36)   
    DRY( 21, 37)   DRY( 21, 38)   DRY( 21, 39)   DRY( 21, 40)   DRY( 21, 41)   
    DRY( 21, 42)   DRY( 21, 43)   DRY( 21, 44)   DRY( 21, 45)   DRY( 21, 46)   
    DRY( 21, 47)   DRY( 21, 48)   DRY( 21, 49)   DRY( 22,  1)   DRY( 22,  2)   
    DRY( 22,  3)   DRY( 22,  4)   DRY( 22,  5)   DRY( 22,  6)   DRY( 22,  7)   
    DRY( 22,  8)   DRY( 22,  9)   DRY( 22, 10)   DRY( 22, 11)   DRY( 22, 12)   
    DRY( 22, 13)   DRY( 22, 14)   DRY( 22, 15)   DRY( 22, 16)   DRY( 22, 17)   
    DRY( 22, 18)   DRY( 22, 19)   DRY( 22, 20)   DRY( 22, 21)   DRY( 22, 22)   
    DRY( 22, 23)   DRY( 22, 24)   DRY( 22, 25)   DRY( 22, 26)   DRY( 22, 27)   
    DRY( 22, 28)   DRY( 22, 29)   DRY( 22, 30)   DRY( 22, 31)   DRY( 22, 32)   
    DRY( 22, 33)   DRY( 22, 34)   DRY( 22, 35)   DRY( 22, 36)   DRY( 22, 37)   
    DRY( 22, 38)   DRY( 22, 39)   DRY( 22, 40)   DRY( 22, 41)   DRY( 22, 42)   
    DRY( 22, 43)   DRY( 22, 44)   DRY( 22, 45)   DRY( 22, 46)   DRY( 22, 47)   
    DRY( 22, 48)   DRY( 22, 49)   DRY( 23,  1)   DRY( 23,  2)   DRY( 23,  3)   
    DRY( 23,  4)   DRY( 23,  5)   DRY( 23,  6)   DRY( 23,  7)   DRY( 23,  8)   
    DRY( 23,  9)   DRY( 23, 10)   DRY( 23, 11)   DRY( 23, 12)   DRY( 23, 13)   
    DRY( 23, 14)   DRY( 23, 15)   DRY( 23, 16)   DRY( 23, 17)   DRY( 23, 18)   
    DRY( 23, 19)   DRY( 23, 20)   DRY( 23, 21)   DRY( 23, 22)   DRY( 23, 23)   
    DRY( 23, 24)   DRY( 23, 25)   DRY( 23, 26)   DRY( 23, 27)   DRY( 23, 28)   
    DRY( 23, 29)   DRY( 23, 30)   DRY( 23, 31)   DRY( 23, 32)   DRY( 23, 33)   
    DRY( 23, 34)   DRY( 23, 35)   DRY( 23, 36)   DRY( 23, 37)   DRY( 23, 38)   
    DRY( 23, 39)   DRY( 23, 40)   DRY( 23, 41)   DRY( 23, 42)   DRY( 23, 43)   
    DRY( 23, 44)   DRY( 23, 45)   DRY( 23, 46)   DRY( 23, 47)   DRY( 23, 48)   
    DRY( 23, 49)   DRY( 24,  1)   DRY( 24,  2)   DRY( 24,  3)   DRY( 24,  4)   
    DRY( 24,  5)   DRY( 24,  6)   DRY( 24,  7)   DRY( 24,  8)   DRY( 24,  9)   
    DRY( 24, 10)   DRY( 24, 11)   DRY( 24, 12)   DRY( 24, 13)   DRY( 24, 14)   
    DRY( 24, 15)   DRY( 24, 16)   DRY( 24, 17)   DRY( 24, 18)   DRY( 24, 19)   
    DRY( 24, 20)   DRY( 24, 21)   DRY( 24, 22)   DRY( 24, 23)   DRY( 24, 24)   
    DRY( 24, 25)   DRY( 24, 26)   DRY( 24, 27)   DRY( 24, 28)   DRY( 24, 29)   
    DRY( 24, 30)   DRY( 24, 31)   DRY( 24, 32)   DRY( 24, 33)   DRY( 24, 34)   
    DRY( 24, 35)   DRY( 24, 36)   DRY( 24, 37)   DRY( 24, 38)   DRY( 24, 39)   
    DRY( 24, 40)   DRY( 24, 41)   DRY( 24, 42)   DRY( 24, 43)   DRY( 24, 44)   
    DRY( 24, 45)   DRY( 24, 46)   DRY( 24, 47)   DRY( 24, 48)   DRY( 24, 49)   
    DRY( 25,  1)   DRY( 25,  2)   DRY( 25,  3)   DRY( 25,  4)   DRY( 25,  5)   
    DRY( 25,  6)   DRY( 25,  7)   DRY( 25,  8)   DRY( 25,  9)   DRY( 25, 10)   
    DRY( 25, 11)   DRY( 25, 12)   DRY( 25, 13)   DRY( 25, 14)   DRY( 25, 15)   
    DRY( 25, 16)   DRY( 25, 17)   DRY( 25, 18)   DRY( 25, 19)   DRY( 25, 20)   
    DRY( 25, 21)   DRY( 25, 22)   DRY( 25, 23)   DRY( 25, 24)   DRY( 25, 25)   
    DRY( 25, 26)   DRY( 25, 27)   DRY( 25, 28)   DRY( 25, 29)   DRY( 25, 30)   
    DRY( 25, 31)   DRY( 25, 32)   DRY( 25, 33)   DRY( 25, 34)   DRY( 25, 35)   
    DRY( 25, 36)   DRY( 25, 37)   DRY( 25, 38)   DRY( 25, 39)   DRY( 25, 40)   
    DRY( 25, 41)   DRY( 25, 42)   DRY( 25, 43)   DRY( 25, 44)   DRY( 25, 45)   
    DRY( 25, 46)   DRY( 25, 47)   DRY( 25, 48)   DRY( 25, 49)   DRY( 26,  1)   
    DRY( 26,  2)   DRY( 26,  3)   DRY( 26,  4)   DRY( 26,  5)   DRY( 26,  6)   
    DRY( 26,  7)   DRY( 26,  8)   DRY( 26,  9)   DRY( 26, 10)   DRY( 26, 11)   
    DRY( 26, 12)   DRY( 26, 13)   DRY( 26, 14)   DRY( 26, 15)   DRY( 26, 16)   
    DRY( 26, 17)   DRY( 26, 18)   DRY( 26, 19)   DRY( 26, 20)   DRY( 26, 21)   
    DRY( 26, 22)   DRY( 26, 23)   DRY( 26, 24)   DRY( 26, 25)   DRY( 26, 26)   
    DRY( 26, 27)   DRY( 26, 28)   DRY( 26, 29)   DRY( 26, 30)   DRY( 26, 31)   
    DRY( 26, 32)   DRY( 26, 33)   DRY( 26, 34)   DRY( 26, 35)   DRY( 26, 36)   
    DRY( 26, 37)   DRY( 26, 38)   DRY( 26, 39)   DRY( 26, 40)   DRY( 26, 41)   
    DRY( 26, 42)   DRY( 26, 43)   DRY( 26, 44)   DRY( 26, 45)   DRY( 26, 46)   
    DRY( 26, 47)   DRY( 26, 48)   DRY( 26, 49)   DRY( 27,  1)   DRY( 27,  2)   
    DRY( 27,  3)   DRY( 27,  4)   DRY( 27,  5)   DRY( 27,  6)   DRY( 27,  7)   
    DRY( 27,  8)   DRY( 27,  9)   DRY( 27, 10)   DRY( 27, 11)   DRY( 27, 12)   
    DRY( 27, 13)   DRY( 27, 14)   DRY( 27, 15)   DRY( 27, 16)   DRY( 27, 17)   
    DRY( 27, 18)   DRY( 27, 19)   DRY( 27, 20)   DRY( 27, 21)   DRY( 27, 22)   
    DRY( 27, 23)   DRY( 27, 24)   DRY( 27, 25)   DRY( 27, 26)   DRY( 27, 27)   
    DRY( 27, 28)   DRY( 27, 29)   DRY( 27, 30)   DRY( 27, 31)   DRY( 27, 32)   
    DRY( 27, 33)   DRY( 27, 34)   DRY( 27, 35)   DRY( 27, 36)   DRY( 27, 37)   
    DRY( 27, 38)   DRY( 27, 39)   DRY( 27, 40)   DRY( 27, 41)   DRY( 27, 42)   
    DRY( 27, 43)   DRY( 27, 44)   DRY( 27, 45)   DRY( 27, 46)   DRY( 27, 47)   
    DRY( 27, 48)   DRY( 28,  1)   DRY( 28,  2)   DRY( 28,  3)   DRY( 28,  4)   
    DRY( 28,  5)   DRY( 28,  6)   DRY( 28,  7)   DRY( 28,  8)   DRY( 28,  9)   
    DRY( 28, 10)   DRY( 28, 11)   DRY( 28, 12)   DRY( 28, 13)   DRY( 28, 14)   
    DRY( 28, 15)   DRY( 28, 16)   DRY( 28, 17)   DRY( 28, 18)   DRY( 28, 19)   
    DRY( 28, 20)   DRY( 28, 21)   DRY( 28, 22)   DRY( 28, 23)   DRY( 28, 24)   
    DRY( 28, 25)   DRY( 28, 26)   DRY( 28, 27)   DRY( 28, 28)   DRY( 28, 29)   
    DRY( 28, 30)   DRY( 28, 31)   DRY( 28, 32)   DRY( 28, 33)   DRY( 28, 34)   
    DRY( 28, 35)   DRY( 28, 36)   DRY( 28, 37)   DRY( 28, 38)   DRY( 28, 39)   
    DRY( 28, 40)   DRY( 28, 41)   DRY( 28, 42)   DRY( 28, 43)   DRY( 28, 44)   
    DRY( 28, 45)   DRY( 28, 46)   DRY( 28, 47)   DRY( 28, 48)   DRY( 29,  1)   
    DRY( 29,  2)   DRY( 29,  3)   DRY( 29,  4)   DRY( 29,  5)   DRY( 29,  6)   
    DRY( 29,  7)   DRY( 29,  8)   DRY( 29,  9)   DRY( 29, 10)   DRY( 29, 11)   
    DRY( 29, 12)   DRY( 29, 13)   DRY( 29, 14)   DRY( 29, 15)   DRY( 29, 16)   
    DRY( 29, 17)   DRY( 29, 18)   DRY( 29, 19)   DRY( 29, 20)   DRY( 29, 21)   
    DRY( 29, 22)   DRY( 29, 23)   DRY( 29, 24)   DRY( 29, 25)   DRY( 29, 26)   
    DRY( 29, 27)   DRY( 29, 28)   DRY( 29, 29)   DRY( 29, 30)   DRY( 29, 31)   
    DRY( 29, 32)   DRY( 29, 33)   DRY( 29, 34)   DRY( 29, 35)   DRY( 29, 36)   
    DRY( 29, 37)   DRY( 29, 38)   DRY( 29, 39)   DRY( 29, 40)   DRY( 29, 41)   
    DRY( 29, 42)   DRY( 29, 43)   DRY( 29, 44)   DRY( 29, 45)   DRY( 29, 46)   
    DRY( 29, 47)   DRY( 29, 48)   DRY( 30,  1)   DRY( 30,  2)   DRY( 30,  3)   
    DRY( 30,  4)   DRY( 30,  5)   DRY( 30,  6)   DRY( 30,  7)   DRY( 30,  8)   
    DRY( 30,  9)   DRY( 30, 10)   DRY( 30, 11)   DRY( 30, 12)   DRY( 30, 13)   
    DRY( 30, 14)   DRY( 30, 15)   DRY( 30, 16)   DRY( 30, 17)   DRY( 30, 18)   
    DRY( 30, 19)   DRY( 30, 20)   DRY( 30, 21)   DRY( 30, 22)   DRY( 30, 23)   
    DRY( 30, 24)   DRY( 30, 25)   DRY( 30, 26)   DRY( 30, 27)   DRY( 30, 28)   
    DRY( 30, 29)   DRY( 30, 30)   DRY( 30, 31)   DRY( 30, 32)   DRY( 30, 33)   
    DRY( 30, 34)   DRY( 30, 35)   DRY( 30, 36)   DRY( 30, 37)   DRY( 30, 38)   
    DRY( 30, 39)   DRY( 30, 40)   DRY( 30, 41)   DRY( 30, 42)   DRY( 30, 43)   
    DRY( 30, 44)   DRY( 30, 45)   DRY( 30, 46)   DRY( 30, 47)   DRY( 30, 48)   
    DRY( 31,  1)   DRY( 31,  2)   DRY( 31,  3)   DRY( 31,  4)   DRY( 31,  5)   
    DRY( 31,  6)   DRY( 31,  7)   DRY( 31,  8)   DRY( 31,  9)   DRY( 31, 10)   
    DRY( 31, 11)   DRY( 31, 12)   DRY( 31, 13)   DRY( 31, 14)   DRY( 31, 15)   
    DRY( 31, 16)   DRY( 31, 17)   DRY( 31, 18)   DRY( 31, 19)   DRY( 31, 20)   
    DRY( 31, 21)   DRY( 31, 22)   DRY( 31, 23)   DRY( 31, 24)   DRY( 31, 25)   
    DRY( 31, 26)   DRY( 31, 27)   DRY( 31, 28)   DRY( 31, 29)   DRY( 31, 30)   
    DRY( 31, 31)   DRY( 31, 32)   DRY( 31, 33)   DRY( 31, 34)   DRY( 31, 35)   
    DRY( 31, 36)   DRY( 31, 37)   DRY( 31, 38)   DRY( 31, 39)   DRY( 31, 40)   
    DRY( 31, 41)   DRY( 31, 42)   DRY( 31, 43)   DRY( 31, 44)   DRY( 31, 45)   
    DRY( 31, 46)   DRY( 31, 47)   DRY( 31, 48)   DRY( 32,  1)   DRY( 32,  2)   
    DRY( 32,  3)   DRY( 32,  4)   DRY( 32,  5)   DRY( 32,  6)   DRY( 32,  7)   
    DRY( 32,  8)   DRY( 32,  9)   DRY( 32, 10)   DRY( 32, 11)   DRY( 32, 12)   
    DRY( 32, 13)   DRY( 32, 14)   DRY( 32, 15)   DRY( 32, 16)   DRY( 32, 17)   
    DRY( 32, 18)   DRY( 32, 19)   DRY( 32, 20)   DRY( 32, 21)   DRY( 32, 22)   
    DRY( 32, 23)   DRY( 32, 24)   DRY( 32, 25)   DRY( 32, 26)   DRY( 32, 27)   
    DRY( 32, 28)   DRY( 32, 29)   DRY( 32, 30)   DRY( 32, 31)   DRY( 32, 32)   
    DRY( 32, 33)   DRY( 32, 34)   DRY( 32, 35)   DRY( 32, 36)   DRY( 32, 37)   
    DRY( 32, 38)   DRY( 32, 39)   DRY( 32, 40)   DRY( 32, 41)   DRY( 32, 42)   
    DRY( 32, 43)   DRY( 32, 44)   DRY( 32, 45)   DRY( 32, 46)   DRY( 32, 47)   
    DRY( 32, 48)   DRY( 33,  1)   DRY( 33,  2)   DRY( 33,  3)   DRY( 33,  4)   
    DRY( 33,  5)   DRY( 33,  6)   DRY( 33,  7)   DRY( 33,  8)   DRY( 33,  9)   
    DRY( 33, 10)   DRY( 33, 11)   DRY( 33, 12)   DRY( 33, 13)   DRY( 33, 14)   
    DRY( 33, 15)   DRY( 33, 16)   DRY( 33, 17)   DRY( 33, 18)   DRY( 33, 19)   
    DRY( 33, 20)   DRY( 33, 21)   DRY( 33, 22)   DRY( 33, 23)   DRY( 33, 24)   
    DRY( 33, 25)   DRY( 33, 26)   DRY( 33, 27)   DRY( 33, 28)   DRY( 33, 29)   
    DRY( 33, 30)   DRY( 33, 31)   DRY( 33, 32)   DRY( 33, 33)   DRY( 33, 34)   
    DRY( 33, 35)   DRY( 33, 36)   DRY( 33, 37)   DRY( 33, 38)   DRY( 33, 39)   
    DRY( 33, 40)   DRY( 33, 41)   DRY( 33, 42)   DRY( 33, 43)   DRY( 33, 44)   
    DRY( 33, 45)   DRY( 33, 46)   DRY( 33, 47)   DRY( 33, 48)   DRY( 34,  1)   
    DRY( 34,  2)   DRY( 34,  3)   DRY( 34,  4)   DRY( 34,  5)   DRY( 34,  6)   
    DRY( 34,  7)   DRY( 34,  8)   DRY( 34,  9)   DRY( 34, 10)   DRY( 34, 11)   
    DRY( 34, 12)   DRY( 34, 13)   DRY( 34, 14)   DRY( 34, 15)   DRY( 34, 16)   
    DRY( 34, 17)   DRY( 34, 18)   DRY( 34, 19)   DRY( 34, 20)   DRY( 34, 21)   
    DRY( 34, 22)   DRY( 34, 23)   DRY( 34, 24)   DRY( 34, 25)   DRY( 34, 26)   
    DRY( 34, 27)   DRY( 34, 28)   DRY( 34, 29)   DRY( 34, 30)   DRY( 34, 31)   
    DRY( 34, 32)   DRY( 34, 33)   DRY( 34, 34)   DRY( 34, 35)   DRY( 34, 36)   
    DRY( 34, 37)   DRY( 34, 38)   DRY( 34, 39)   DRY( 34, 40)   DRY( 34, 41)   
    DRY( 34, 42)   DRY( 34, 43)   DRY( 34, 44)   DRY( 34, 45)   DRY( 34, 46)   
    DRY( 34, 47)   DRY( 34, 48)   DRY( 35,  1)   DRY( 35,  2)   DRY( 35,  3)   
    DRY( 35,  4)   DRY( 35,  5)   DRY( 35,  6)   DRY( 35,  7)   DRY( 35,  8)   
    DRY( 35,  9)   DRY( 35, 10)   DRY( 35, 11)   DRY( 35, 12)   DRY( 35, 13)   
    DRY( 35, 14)   DRY( 35, 15)   DRY( 35, 16)   DRY( 35, 17)   DRY( 35, 18)   
    DRY( 35, 19)   DRY( 35, 20)   DRY( 35, 21)   DRY( 35, 22)   DRY( 35, 23)   
    DRY( 35, 24)   DRY( 35, 25)   DRY( 35, 26)   DRY( 35, 27)   DRY( 35, 28)   
    DRY( 35, 29)   DRY( 35, 30)   DRY( 35, 31)   DRY( 35, 32)   DRY( 35, 33)   
    DRY( 35, 34)   DRY( 35, 35)   DRY( 35, 36)   DRY( 35, 37)   DRY( 35, 38)   
    DRY( 35, 39)   DRY( 35, 40)   DRY( 35, 41)   DRY( 35, 42)   DRY( 35, 43)   
    DRY( 35, 44)   DRY( 35, 45)   DRY( 35, 46)   DRY( 35, 47)   DRY( 35, 48)   
    DRY( 36,  1)   DRY( 36,  2)   DRY( 36,  3)   DRY( 36,  4)   DRY( 36,  5)   
    DRY( 36,  6)   DRY( 36,  7)   DRY( 36,  8)   DRY( 36,  9)   DRY( 36, 10)   
    DRY( 36, 11)   DRY( 36, 12)   DRY( 36, 13)   DRY( 36, 14)   DRY( 36, 15)   
    DRY( 36, 16)   DRY( 36, 17)   DRY( 36, 18)   DRY( 36, 19)   DRY( 36, 20)   
    DRY( 36, 21)   DRY( 36, 22)   DRY( 36, 23)   DRY( 36, 24)   DRY( 36, 25)   
    DRY( 36, 26)   DRY( 36, 27)   DRY( 36, 28)   DRY( 36, 29)   DRY( 36, 30)   
    DRY( 36, 31)   DRY( 36, 32)   DRY( 36, 33)   DRY( 36, 34)   DRY( 36, 35)   
    DRY( 36, 36)   DRY( 36, 37)   DRY( 36, 38)   DRY( 36, 39)   DRY( 36, 40)   
    DRY( 36, 41)   DRY( 36, 42)   DRY( 36, 43)   DRY( 36, 44)   DRY( 36, 45)   
    DRY( 36, 46)   DRY( 36, 47)   DRY( 36, 48)   DRY( 37,  1)   DRY( 37,  2)   
    DRY( 37,  3)   DRY( 37,  4)   DRY( 37,  5)   DRY( 37,  6)   DRY( 37,  7)   
    DRY( 37,  8)   DRY( 37,  9)   DRY( 37, 10)   DRY( 37, 11)   DRY( 37, 12)   
    DRY( 37, 13)   DRY( 37, 14)   DRY( 37, 15)   DRY( 37, 16)   DRY( 37, 17)   
    DRY( 37, 18)   DRY( 37, 19)   DRY( 37, 20)   DRY( 37, 21)   DRY( 37, 22)   
    DRY( 37, 23)   DRY( 37, 24)   DRY( 37, 25)   DRY( 37, 26)   DRY( 37, 27)   
    DRY( 37, 28)   DRY( 37, 29)   DRY( 37, 30)   DRY( 37, 31)   DRY( 37, 32)   
    DRY( 37, 33)   DRY( 37, 34)   DRY( 37, 35)   DRY( 37, 36)   DRY( 37, 37)   
    DRY( 37, 38)   DRY( 37, 39)   DRY( 37, 40)   DRY( 37, 41)   DRY( 37, 42)   
    DRY( 37, 43)   DRY( 37, 44)   DRY( 37, 45)   DRY( 37, 46)   DRY( 37, 47)   
    DRY( 37, 48)   DRY( 38,  1)   DRY( 38,  2)   DRY( 38,  3)   DRY( 38,  4)   
    DRY( 38,  5)   DRY( 38,  6)   DRY( 38,  7)   DRY( 38,  8)   DRY( 38,  9)   
    DRY( 38, 10)   DRY( 38, 11)   DRY( 38, 12)   DRY( 38, 13)   DRY( 38, 14)   
    DRY( 38, 15)   DRY( 38, 16)   DRY( 38, 17)   DRY( 38, 18)   DRY( 38, 19)   
    DRY( 38, 20)   DRY( 38, 21)   DRY( 38, 22)   DRY( 38, 23)   DRY( 38, 24)   
    DRY( 38, 25)   DRY( 38, 26)   DRY( 38, 27)   DRY( 38, 28)   DRY( 38, 29)   
    DRY( 38, 30)   DRY( 38, 31)   DRY( 38, 32)   DRY( 38, 33)   DRY( 38, 34)   
    DRY( 38, 35)   DRY( 38, 36)   DRY( 38, 37)   DRY( 38, 38)   DRY( 38, 39)   
    DRY( 38, 40)   DRY( 38, 41)   DRY( 38, 42)   DRY( 38, 43)   DRY( 38, 44)   
    DRY( 38, 45)   DRY( 38, 46)   DRY( 38, 47)   DRY( 39,  1)   DRY( 39,  2)   
    DRY( 39,  3)   DRY( 39,  4)   DRY( 39,  5)   DRY( 39,  6)   DRY( 39,  7)   
    DRY( 39,  8)   DRY( 39,  9)   DRY( 39, 10)   DRY( 39, 11)   DRY( 39, 12)   
    DRY( 39, 13)   DRY( 39, 14)   DRY( 39, 15)   DRY( 39, 16)   DRY( 39, 17)   
    DRY( 39, 18)   DRY( 39, 19)   DRY( 39, 20)   DRY( 39, 21)   DRY( 39, 22)   
    DRY( 39, 23)   DRY( 39, 24)   DRY( 39, 25)   DRY( 39, 26)   DRY( 39, 27)   
    DRY( 39, 28)   DRY( 39, 29)   DRY( 39, 30)   DRY( 39, 31)   DRY( 39, 32)   
    DRY( 39, 33)   DRY( 39, 34)   DRY( 39, 35)   DRY( 39, 36)   DRY( 39, 37)   
    DRY( 39, 38)   DRY( 39, 39)   DRY( 39, 40)   DRY( 39, 41)   DRY( 39, 42)   
    DRY( 39, 43)   DRY( 39, 44)   DRY( 39, 45)   DRY( 39, 46)   DRY( 39, 47)   
    DRY( 40,  1)   DRY( 40,  2)   DRY( 40,  3)   DRY( 40,  4)   DRY( 40,  5)   
    DRY( 40,  6)   DRY( 40,  7)   DRY( 40,  8)   DRY( 40,  9)   DRY( 40, 10)   
    DRY( 40, 11)   DRY( 40, 12)   DRY( 40, 13)   DRY( 40, 14)   DRY( 40, 15)   
    DRY( 40, 16)   DRY( 40, 17)   DRY( 40, 18)   DRY( 40, 19)   DRY( 40, 20)   
    DRY( 40, 21)   DRY( 40, 22)   DRY( 40, 23)   DRY( 40, 24)   DRY( 40, 25)   
    DRY( 40, 26)   DRY( 40, 27)   DRY( 40, 28)   DRY( 40, 29)   DRY( 40, 30)   
    DRY( 40, 31)   DRY( 40, 32)   DRY( 40, 33)   DRY( 40, 34)   DRY( 40, 35)   
    DRY( 40, 36)   DRY( 40, 37)   DRY( 40, 38)   DRY( 40, 39)   DRY( 40, 40)   
    DRY( 40, 41)   DRY( 40, 42)   DRY( 40, 43)   DRY( 40, 44)   DRY( 40, 45)   
    DRY( 40, 46)   DRY( 40, 47)   DRY( 41,  1)   DRY( 41,  2)   DRY( 41,  3)   
    DRY( 41,  4)   DRY( 41,  5)   DRY( 41,  6)   DRY( 41,  7)   DRY( 41,  8)   
    DRY( 41,  9)   DRY( 41, 10)   DRY( 41, 11)   DRY( 41, 12)   DRY( 41, 13)   
    DRY( 41, 14)   DRY( 41, 15)   DRY( 41, 16)   DRY( 41, 17)   DRY( 41, 18)   
    DRY( 41, 19)   DRY( 41, 20)   DRY( 41, 21)   DRY( 41, 22)   DRY( 41, 23)   
    DRY( 41, 24)   DRY( 41, 25)   DRY( 41, 26)   DRY( 41, 27)   DRY( 41, 28)   
    DRY( 41, 29)   DRY( 41, 30)   DRY( 41, 31)   DRY( 41, 32)   DRY( 41, 33)   
    DRY( 41, 34)   DRY( 41, 35)   DRY( 41, 36)   DRY( 41, 37)   DRY( 41, 38)   
    DRY( 41, 39)   DRY( 41, 40)   DRY( 41, 41)   DRY( 41, 42)   DRY( 41, 43)   
    DRY( 41, 44)   DRY( 41, 45)   DRY( 41, 46)   DRY( 41, 47)   DRY( 42,  1)   
    DRY( 42,  2)   DRY( 42,  3)   DRY( 42,  4)   DRY( 42,  5)   DRY( 42,  6)   
[...]
      -1.0000E+30 -1.0000E+30 -1.0000E+30 -1.0000E+30 -1.0000E+30 -1.0000E+30 -1.0000E+30   70.00       70.00       70.00    
  24  -1.0000E+30 -1.0000E+30 -1.0000E+30 -1.0000E+30 -1.0000E+30 -1.0000E+30 -1.0000E+30 -1.0000E+30 -1.0000E+30 -1.0000E+30
      -1.0000E+30 -1.0000E+30 -1.0000E+30 -1.0000E+30 -1.0000E+30 -1.0000E+30 -1.0000E+30 -1.0000E+30 -1.0000E+30 -1.0000E+30
      -1.0000E+30 -1.0000E+30 -1.0000E+30 -1.0000E+30 -1.0000E+30 -1.0000E+30 -1.0000E+30 -1.0000E+30 -1.0000E+30 -1.0000E+30
      -1.0000E+30 -1.0000E+30 -1.0000E+30 -1.0000E+30 -1.0000E+30 -1.0000E+30 -1.0000E+30 -1.0000E+30 -1.0000E+30 -1.0000E+30
      -1.0000E+30 -1.0000E+30 -1.0000E+30 -1.0000E+30 -1.0000E+30 -1.0000E+30 -1.0000E+30   70.00       70.00       70.00    
  25  -1.0000E+30 -1.0000E+30 -1.0000E+30 -1.0000E+30 -1.0000E+30 -1.0000E+30 -1.0000E+30 -1.0000E+30 -1.0000E+30 -1.0000E+30
      -1.0000E+30 -1.0000E+30 -1.0000E+30 -1.0000E+30 -1.0000E+30 -1.0000E+30 -1.0000E+30 -1.0000E+30 -1.0000E+30 -1.0000E+30
      -1.0000E+30 -1.0000E+30 -1.0000E+30 -1.0000E+30 -1.0000E+30 -1.0000E+30 -1.0000E+30 -1.0000E+30 -1.0000E+30 -1.0000E+30
      -1.0000E+30 -1.0000E+30 -1.0000E+30 -1.0000E+30 -1.0000E+30 -1.0000E+30 -1.0000E+30 -1.0000E+30 -1.0000E+30 -1.0000E+30
      -1.0000E+30 -1.0000E+30 -1.0000E+30 -1.0000E+30 -1.0000E+30 -1.0000E+30 -1.0000E+30   70.00       70.00       70.00    
  26  -1.0000E+30 -1.0000E+30 -1.0000E+30 -1.0000E+30 -1.0000E+30 -1.0000E+30 -1.0000E+30 -1.0000E+30 -1.0000E+30 -1.0000E+30
      -1.0000E+30 -1.0000E+30 -1.0000E+30 -1.0000E+30 -1.0000E+30 -1.0000E+30 -1.0000E+30 -1.0000E+30 -1.0000E+30 -1.0000E+30
      -1.0000E+30 -1.0000E+30 -1.0000E+30 -1.0000E+30 -1.0000E+30 -1.0000E+30 -1.0000E+30 -1.0000E+30 -1.0000E+30 -1.0000E+30
      -1.0000E+30 -1.0000E+30 -1.0000E+30 -1.0000E+30 -1.0000E+30 -1.0000E+30 -1.0000E+30 -1.0000E+30 -1.0000E+30 -1.0000E+30
      -1.0000E+30 -1.0000E+30 -1.0000E+30 -1.0000E+30 -1.0000E+30 -1.0000E+30 -1.0000E+30   70.00       70.00       70.00    
  27  -1.0000E+30 -1.0000E+30 -1.0000E+30 -1.0000E+30 -1.0000E+30 -1.0000E+30 -1.0000E+30 -1.0000E+30 -1.0000E+30 -1.0000E+30
      -1.0000E+30 -1.0000E+30 -1.0000E+30 -1.0000E+30 -1.0000E+30 -1.0000E+30 -1.0000E+30 -1.0000E+30 -1.0000E+30 -1.0000E+30
      -1.0000E+30 -1.0000E+30 -1.0000E+30 -1.0000E+30 -1.0000E+30 -1.0000E+30 -1.0000E+30 -1.0000E+30 -1.0000E+30 -1.0000E+30
      -1.0000E+30 -1.0000E+30 -1.0000E+30 -1.0000E+30 -1.0000E+30 -1.0000E+30 -1.0000E+30 -1.0000E+30 -1.0000E+30 -1.0000E+30
      -1.0000E+30 -1.0000E+30 -1.0000E+30 -1.0000E+30 -1.0000E+30 -1.0000E+30 -1.0000E+30   70.00       70.00       70.00    
  28  -1.0000E+30 -1.0000E+30 -1.0000E+30 -1.0000E+30 -1.0000E+30 -1.0000E+30 -1.0000E+30 -1.0000E+30 -1.0000E+30 -1.0000E+30
      -1.0000E+30 -1.0000E+30 -1.0000E+30 -1.0000E+30 -1.0000E+30 -1.0000E+30 -1.0000E+30 -1.0000E+30 -1.0000E+30 -1.0000E+30
      -1.0000E+30 -1.0000E+30 -1.0000E+30 -1.0000E+30 -1.0000E+30 -1.0000E+30 -1.0000E+30 -1.0000E+30 -1.0000E+30 -1.0000E+30
      -1.0000E+30 -1.0000E+30 -1.0000E+30 -1.0000E+30 -1.0000E+30 -1.0000E+30 -1.0000E+30 -1.0000E+30 -1.0000E+30 -1.0000E+30
      -1.0000E+30 -1.0000E+30 -1.0000E+30 -1.0000E+30 -1.0000E+30 -1.0000E+30 -1.0000E+30   70.00       70.00       70.00    
  29  -1.0000E+30 -1.0000E+30 -1.0000E+30 -1.0000E+30 -1.0000E+30 -1.0000E+30 -1.0000E+30 -1.0000E+30 -1.0000E+30 -1.0000E+30
      -1.0000E+30 -1.0000E+30 -1.0000E+30 -1.0000E+30 -1.0000E+30 -1.0000E+30 -1.0000E+30 -1.0000E+30 -1.0000E+30 -1.0000E+30
      -1.0000E+30 -1.0000E+30 -1.0000E+30 -1.0000E+30 -1.0000E+30 -1.0000E+30 -1.0000E+30 -1.0000E+30 -1.0000E+30 -1.0000E+30
      -1.0000E+30 -1.0000E+30 -1.0000E+30 -1.0000E+30 -1.0000E+30 -1.0000E+30 -1.0000E+30 -1.0000E+30 -1.0000E+30 -1.0000E+30
      -1.0000E+30 -1.0000E+30 -1.0000E+30 -1.0000E+30 -1.0000E+30 -1.0000E+30 -1.0000E+30   70.00       70.00       70.00    
  30  -1.0000E+30 -1.0000E+30 -1.0000E+30 -1.0000E+30 -1.0000E+30 -1.0000E+30 -1.0000E+30 -1.0000E+30 -1.0000E+30 -1.0000E+30
      -1.0000E+30 -1.0000E+30 -1.0000E+30 -1.0000E+30 -1.0000E+30 -1.0000E+30 -1.0000E+30 -1.0000E+30 -1.0000E+30 -1.0000E+30
      -1.0000E+30 -1.0000E+30 -1.0000E+30 -1.0000E+30 -1.0000E+30 -1.0000E+30 -1.0000E+30 -1.0000E+30 -1.0000E+30 -1.0000E+30
      -1.0000E+30 -1.0000E+30 -1.0000E+30 -1.0000E+30 -1.0000E+30 -1.0000E+30 -1.0000E+30 -1.0000E+30 -1.0000E+30 -1.0000E+30
      -1.0000E+30 -1.0000E+30 -1.0000E+30 -1.0000E+30 -1.0000E+30 -1.0000E+30 -1.0000E+30   70.00       70.00       70.00    
  31  -1.0000E+30 -1.0000E+30 -1.0000E+30 -1.0000E+30 -1.0000E+30 -1.0000E+30 -1.0000E+30 -1.0000E+30 -1.0000E+30 -1.0000E+30
      -1.0000E+30 -1.0000E+30 -1.0000E+30 -1.0000E+30 -1.0000E+30 -1.0000E+30 -1.0000E+30 -1.0000E+30 -1.0000E+30 -1.0000E+30
      -1.0000E+30 -1.0000E+30 -1.0000E+30 -1.0000E+30 -1.0000E+30 -1.0000E+30 -1.0000E+30 -1.0000E+30 -1.0000E+30 -1.0000E+30
      -1.0000E+30 -1.0000E+30 -1.0000E+30 -1.0000E+30 -1.0000E+30 -1.0000E+30 -1.0000E+30 -1.0000E+30 -1.0000E+30 -1.0000E+30
      -1.0000E+30 -1.0000E+30 -1.0000E+30 -1.0000E+30 -1.0000E+30 -1.0000E+30   70.00       70.00       70.00       70.00    
  32  -1.0000E+30 -1.0000E+30 -1.0000E+30 -1.0000E+30 -1.0000E+30 -1.0000E+30 -1.0000E+30 -1.0000E+30 -1.0000E+30 -1.0000E+30
      -1.0000E+30 -1.0000E+30 -1.0000E+30 -1.0000E+30 -1.0000E+30 -1.0000E+30 -1.0000E+30 -1.0000E+30 -1.0000E+30 -1.0000E+30
      -1.0000E+30 -1.0000E+30 -1.0000E+30 -1.0000E+30 -1.0000E+30 -1.0000E+30 -1.0000E+30 -1.0000E+30 -1.0000E+30 -1.0000E+30
      -1.0000E+30 -1.0000E+30 -1.0000E+30 -1.0000E+30 -1.0000E+30 -1.0000E+30 -1.0000E+30 -1.0000E+30 -1.0000E+30 -1.0000E+30
      -1.0000E+30 -1.0000E+30 -1.0000E+30 -1.0000E+30 -1.0000E+30 -1.0000E+30   70.00       70.00       70.00       70.00    
  33  -1.0000E+30 -1.0000E+30 -1.0000E+30 -1.0000E+30 -1.0000E+30 -1.0000E+30 -1.0000E+30 -1.0000E+30 -1.0000E+30 -1.0000E+30
      -1.0000E+30 -1.0000E+30 -1.0000E+30 -1.0000E+30 -1.0000E+30 -1.0000E+30 -1.0000E+30 -1.0000E+30 -1.0000E+30 -1.0000E+30
      -1.0000E+30 -1.0000E+30 -1.0000E+30 -1.0000E+30 -1.0000E+30 -1.0000E+30 -1.0000E+30 -1.0000E+30 -1.0000E+30 -1.0000E+30
      -1.0000E+30 -1.0000E+30 -1.0000E+30 -1.0000E+30 -1.0000E+30 -1.0000E+30 -1.0000E+30 -1.0000E+30 -1.0000E+30 -1.0000E+30
      -1.0000E+30 -1.0000E+30 -1.0000E+30 -1.0000E+30 -1.0000E+30 -1.0000E+30   70.00       70.00       70.00       70.00    
  34  -1.0000E+30 -1.0000E+30 -1.0000E+30 -1.0000E+30 -1.0000E+30 -1.0000E+30 -1.0000E+30 -1.0000E+30 -1.0000E+30 -1.0000E+30
      -1.0000E+30 -1.0000E+30 -1.0000E+30 -1.0000E+30 -1.0000E+30 -1.0000E+30 -1.0000E+30 -1.0000E+30 -1.0000E+30 -1.0000E+30
      -1.0000E+30 -1.0000E+30 -1.0000E+30 -1.0000E+30 -1.0000E+30 -1.0000E+30 -1.0000E+30 -1.0000E+30 -1.0000E+30 -1.0000E+30
      -1.0000E+30 -1.0000E+30 -1.0000E+30 -1.0000E+30 -1.0000E+30 -1.0000E+30 -1.0000E+30 -1.0000E+30 -1.0000E+30 -1.0000E+30
      -1.0000E+30 -1.0000E+30 -1.0000E+30 -1.0000E+30 -1.0000E+30 -1.0000E+30   70.00       70.00       70.00       70.00    
  35  -1.0000E+30 -1.0000E+30 -1.0000E+30 -1.0000E+30 -1.0000E+30 -1.0000E+30 -1.0000E+30 -1.0000E+30 -1.0000E+30 -1.0000E+30
      -1.0000E+30 -1.0000E+30 -1.0000E+30 -1.0000E+30 -1.0000E+30 -1.0000E+30 -1.0000E+30 -1.0000E+30 -1.0000E+30 -1.0000E+30
      -1.0000E+30 -1.0000E+30 -1.0000E+30 -1.0000E+30 -1.0000E+30 -1.0000E+30 -1.0000E+30 -1.0000E+30 -1.0000E+30 -1.0000E+30
      -1.0000E+30 -1.0000E+30 -1.0000E+30 -1.0000E+30 -1.0000E+30 -1.0000E+30 -1.0000E+30 -1.0000E+30 -1.0000E+30 -1.0000E+30
      -1.0000E+30 -1.0000E+30 -1.0000E+30 -1.0000E+30 -1.0000E+30   70.00       70.00       70.00       70.00       70.00    
  36  -1.0000E+30 -1.0000E+30 -1.0000E+30 -1.0000E+30 -1.0000E+30 -1.0000E+30 -1.0000E+30 -1.0000E+30 -1.0000E+30 -1.0000E+30
      -1.0000E+30 -1.0000E+30 -1.0000E+30 -1.0000E+30 -1.0000E+30 -1.0000E+30 -1.0000E+30 -1.0000E+30 -1.0000E+30 -1.0000E+30
      -1.0000E+30 -1.0000E+30 -1.0000E+30 -1.0000E+30 -1.0000E+30 -1.0000E+30 -1.0000E+30 -1.0000E+30 -1.0000E+30 -1.0000E+30
      -1.0000E+30 -1.0000E+30 -1.0000E+30 -1.0000E+30 -1.0000E+30 -1.0000E+30 -1.0000E+30 -1.0000E+30 -1.0000E+30 -1.0000E+30
      -1.0000E+30 -1.0000E+30 -1.0000E+30 -1.0000E+30 -1.0000E+30   70.00       70.00       70.00       70.00       70.00    
  37  -1.0000E+30 -1.0000E+30 -1.0000E+30 -1.0000E+30 -1.0000E+30 -1.0000E+30 -1.0000E+30 -1.0000E+30 -1.0000E+30 -1.0000E+30
      -1.0000E+30 -1.0000E+30 -1.0000E+30 -1.0000E+30 -1.0000E+30 -1.0000E+30 -1.0000E+30 -1.0000E+30 -1.0000E+30 -1.0000E+30
      -1.0000E+30 -1.0000E+30 -1.0000E+30 -1.0000E+30 -1.0000E+30 -1.0000E+30 -1.0000E+30 -1.0000E+30 -1.0000E+30 -1.0000E+30
      -1.0000E+30 -1.0000E+30 -1.0000E+30 -1.0000E+30 -1.0000E+30 -1.0000E+30 -1.0000E+30 -1.0000E+30 -1.0000E+30 -1.0000E+30
      -1.0000E+30 -1.0000E+30 -1.0000E+30 -1.0000E+30 -1.0000E+30   70.00       70.00       70.00       70.00       70.00    
  38  -1.0000E+30 -1.0000E+30 -1.0000E+30 -1.0000E+30 -1.0000E+30 -1.0000E+30 -1.0000E+30 -1.0000E+30 -1.0000E+30 -1.0000E+30
      -1.0000E+30 -1.0000E+30 -1.0000E+30 -1.0000E+30 -1.0000E+30 -1.0000E+30 -1.0000E+30 -1.0000E+30 -1.0000E+30 -1.0000E+30
      -1.0000E+30 -1.0000E+30 -1.0000E+30 -1.0000E+30 -1.0000E+30 -1.0000E+30 -1.0000E+30 -1.0000E+30 -1.0000E+30 -1.0000E+30
      -1.0000E+30 -1.0000E+30 -1.0000E+30 -1.0000E+30 -1.0000E+30 -1.0000E+30 -1.0000E+30 -1.0000E+30 -1.0000E+30 -1.0000E+30
      -1.0000E+30 -1.0000E+30 -1.0000E+30 -1.0000E+30 -1.0000E+30   70.00       70.00       70.00       70.00       70.00    
  39  -1.0000E+30 -1.0000E+30 -1.0000E+30 -1.0000E+30 -1.0000E+30 -1.0000E+30 -1.0000E+30 -1.0000E+30 -1.0000E+30 -1.0000E+30
      -1.0000E+30 -1.0000E+30 -1.0000E+30 -1.0000E+30 -1.0000E+30 -1.0000E+30 -1.0000E+30 -1.0000E+30 -1.0000E+30 -1.0000E+30
      -1.0000E+30 -1.0000E+30 -1.0000E+30 -1.0000E+30 -1.0000E+30 -1.0000E+30 -1.0000E+30 -1.0000E+30 -1.0000E+30 -1.0000E+30
      -1.0000E+30 -1.0000E+30 -1.0000E+30 -1.0000E+30 -1.0000E+30 -1.0000E+30 -1.0000E+30 -1.0000E+30 -1.0000E+30 -1.0000E+30
      -1.0000E+30 -1.0000E+30 -1.0000E+30 -1.0000E+30 -1.0000E+30   70.00       70.00       70.00       70.00       70.00    
  40  -1.0000E+30 -1.0000E+30 -1.0000E+30 -1.0000E+30 -1.0000E+30 -1.0000E+30 -1.0000E+30 -1.0000E+30 -1.0000E+30 -1.0000E+30
      -1.0000E+30 -1.0000E+30 -1.0000E+30 -1.0000E+30 -1.0000E+30 -1.0000E+30 -1.0000E+30 -1.0000E+30 -1.0000E+30 -1.0000E+30
      -1.0000E+30 -1.0000E+30 -1.0000E+30 -1.0000E+30 -1.0000E+30 -1.0000E+30 -1.0000E+30 -1.0000E+30 -1.0000E+30 -1.0000E+30
      -1.0000E+30 -1.0000E+30 -1.0000E+30 -1.0000E+30 -1.0000E+30 -1.0000E+30 -1.0000E+30 -1.0000E+30 -1.0000E+30 -1.0000E+30
      -1.0000E+30 -1.0000E+30 -1.0000E+30 -1.0000E+30   70.00       70.00       70.00       70.00       70.00       70.00    
  41   -1000.     -1.0000E+30 -1.0000E+30 -1.0000E+30 -1.0000E+30 -1.0000E+30 -1.0000E+30 -1.0000E+30 -1.0000E+30 -1.0000E+30
      -1.0000E+30 -1.0000E+30 -1.0000E+30 -1.0000E+30 -1.0000E+30 -1.0000E+30 -1.0000E+30 -1.0000E+30 -1.0000E+30 -1.0000E+30
      -1.0000E+30 -1.0000E+30 -1.0000E+30 -1.0000E+30 -1.0000E+30 -1.0000E+30 -1.0000E+30 -1.0000E+30 -1.0000E+30 -1.0000E+30
      -1.0000E+30 -1.0000E+30 -1.0000E+30 -1.0000E+30 -1.0000E+30 -1.0000E+30 -1.0000E+30 -1.0000E+30 -1.0000E+30 -1.0000E+30
      -1.0000E+30 -1.0000E+30 -1.0000E+30 -1.0000E+30   70.00       70.00       70.00       70.00       70.00       70.00    
  42   -1000.      -1000.     -1.0000E+30 -1.0000E+30 -1.0000E+30 -1.0000E+30 -1.0000E+30 -1.0000E+30 -1.0000E+30 -1.0000E+30
      -1.0000E+30 -1.0000E+30 -1.0000E+30 -1.0000E+30 -1.0000E+30 -1.0000E+30 -1.0000E+30 -1.0000E+30 -1.0000E+30 -1.0000E+30
      -1.0000E+30 -1.0000E+30 -1.0000E+30 -1.0000E+30 -1.0000E+30 -1.0000E+30 -1.0000E+30 -1.0000E+30 -1.0000E+30 -1.0000E+30
      -1.0000E+30 -1.0000E+30 -1.0000E+30 -1.0000E+30 -1.0000E+30 -1.0000E+30 -1.0000E+30 -1.0000E+30 -1.0000E+30 -1.0000E+30
      -1.0000E+30 -1.0000E+30 -1.0000E+30 -1.0000E+30   70.00       70.00       70.00       70.00       70.00       70.00    
  43   -1000.      -1000.      -1000.     -1.0000E+30 -1.0000E+30 -1.0000E+30 -1.0000E+30 -1.0000E+30 -1.0000E+30 -1.0000E+30
      -1.0000E+30 -1.0000E+30 -1.0000E+30 -1.0000E+30 -1.0000E+30 -1.0000E+30 -1.0000E+30 -1.0000E+30 -1.0000E+30 -1.0000E+30
      -1.0000E+30 -1.0000E+30 -1.0000E+30 -1.0000E+30 -1.0000E+30 -1.0000E+30 -1.0000E+30 -1.0000E+30 -1.0000E+30 -1.0000E+30
      -1.0000E+30 -1.0000E+30 -1.0000E+30 -1.0000E+30 -1.0000E+30 -1.0000E+30 -1.0000E+30 -1.0000E+30 -1.0000E+30 -1.0000E+30
      -1.0000E+30 -1.0000E+30 -1.0000E+30 -1.0000E+30   70.00       70.00       70.00       70.00       70.00       70.00    
  44   -1000.      -1000.      -1000.      -1000.     -1.0000E+30 -1.0000E+30 -1.0000E+30 -1.0000E+30 -1.0000E+30 -1.0000E+30
      -1.0000E+30 -1.0000E+30 -1.0000E+30 -1.0000E+30 -1.0000E+30 -1.0000E+30 -1.0000E+30 -1.0000E+30 -1.0000E+30 -1.0000E+30
      -1.0000E+30 -1.0000E+30 -1.0000E+30 -1.0000E+30 -1.0000E+30 -1.0000E+30 -1.0000E+30 -1.0000E+30 -1.0000E+30 -1.0000E+30
      -1.0000E+30 -1.0000E+30 -1.0000E+30 -1.0000E+30 -1.0000E+30 -1.0000E+30 -1.0000E+30 -1.0000E+30 -1.0000E+30 -1.0000E+30
      -1.0000E+30 -1.0000E+30 -1.0000E+30 -1.0000E+30   70.00       70.00       70.00       70.00       70.00       70.00    
  45   -1000.      -1000.      -1000.      -1000.      -1000.     -1.0000E+30 -1.0000E+30 -1.0000E+30 -1.0000E+30 -1.0000E+30
      -1.0000E+30 -1.0000E+30 -1.0000E+30 -1.0000E+30 -1.0000E+30 -1.0000E+30 -1.0000E+30 -1.0000E+30 -1.0000E+30 -1.0000E+30
      -1.0000E+30 -1.0000E+30 -1.0000E+30 -1.0000E+30 -1.0000E+30 -1.0000E+30 -1.0000E+30 -1.0000E+30 -1.0000E+30 -1.0000E+30
      -1.0000E+30 -1.0000E+30 -1.0000E+30 -1.0000E+30 -1.0000E+30 -1.0000E+30 -1.0000E+30 -1.0000E+30 -1.0000E+30 -1.0000E+30
      -1.0000E+30 -1.0000E+30 -1.0000E+30   70.00       70.00       70.00       70.00       70.00       70.00       70.00    
  46   -1000.      -1000.      -1000.      -1000.      -1000.      -1000.     -1.0000E+30 -1.0000E+30 -1.0000E+30 -1.0000E+30
      -1.0000E+30 -1.0000E+30 -1.0000E+30 -1.0000E+30 -1.0000E+30 -1.0000E+30 -1.0000E+30 -1.0000E+30 -1.0000E+30 -1.0000E+30
      -1.0000E+30 -1.0000E+30 -1.0000E+30 -1.0000E+30 -1.0000E+30 -1.0000E+30 -1.0000E+30 -1.0000E+30 -1.0000E+30 -1.0000E+30
      -1.0000E+30 -1.0000E+30 -1.0000E+30 -1.0000E+30 -1.0000E+30 -1.0000E+30 -1.0000E+30 -1.0000E+30 -1.0000E+30 -1.0000E+30
      -1.0000E+30 -1.0000E+30 -1.0000E+30   70.00       70.00       70.00       70.00       70.00       70.00       70.00    
  47   -1000.      -1000.      -1000.      -1000.      -1000.      -1000.      -1000.     -1.0000E+30 -1.0000E+30 -1.0000E+30
      -1.0000E+30 -1.0000E+30 -1.0000E+30 -1.0000E+30 -1.0000E+30 -1.0000E+30 -1.0000E+30 -1.0000E+30 -1.0000E+30 -1.0000E+30
      -1.0000E+30 -1.0000E+30 -1.0000E+30 -1.0000E+30 -1.0000E+30 -1.0000E+30 -1.0000E+30 -1.0000E+30 -1.0000E+30 -1.0000E+30
      -1.0000E+30 -1.0000E+30 -1.0000E+30 -1.0000E+30 -1.0000E+30 -1.0000E+30 -1.0000E+30 -1.0000E+30 -1.0000E+30 -1.0000E+30
      -1.0000E+30 -1.0000E+30 -1.0000E+30   70.00       70.00       70.00       70.00       70.00       70.00       70.00    
  48   -1000.      -1000.      -1000.      -1000.      -1000.      -1000.      -1000.      -1000.     -1.0000E+30 -1.0000E+30
      -1.0000E+30 -1.0000E+30 -1.0000E+30 -1.0000E+30 -1.0000E+30 -1.0000E+30 -1.0000E+30 -1.0000E+30 -1.0000E+30 -1.0000E+30
      -1.0000E+30 -1.0000E+30 -1.0000E+30 -1.0000E+30 -1.0000E+30 -1.0000E+30 -1.0000E+30 -1.0000E+30 -1.0000E+30 -1.0000E+30
      -1.0000E+30 -1.0000E+30 -1.0000E+30 -1.0000E+30 -1.0000E+30 -1.0000E+30 -1.0000E+30 -1.0000E+30 -1.0000E+30 -1.0000E+30
      -1.0000E+30 -1.0000E+30 -1.0000E+30   70.00       70.00       70.00       70.00       70.00       70.00       70.00    
  49   -1000.      -1000.      -1000.      -1000.      -1000.      -1000.      -1000.      -1000.      -1000.     -1.0000E+30
      -1.0000E+30 -1.0000E+30 -1.0000E+30 -1.0000E+30 -1.0000E+30 -1.0000E+30 -1.0000E+30 -1.0000E+30 -1.0000E+30 -1.0000E+30
      -1.0000E+30 -1.0000E+30 -1.0000E+30 -1.0000E+30 -1.0000E+30 -1.0000E+30 -1.0000E+30 -1.0000E+30 -1.0000E+30 -1.0000E+30
      -1.0000E+30 -1.0000E+30 -1.0000E+30 -1.0000E+30 -1.0000E+30 -1.0000E+30 -1.0000E+30 -1.0000E+30 -1.0000E+30 -1.0000E+30
      -1.0000E+30 -1.0000E+30 -1.0000E+30   70.00       70.00       70.00       70.00       70.00       70.00       70.00    
  50   -1000.      -1000.      -1000.      -1000.      -1000.      -1000.      -1000.      -1000.      -1000.      -1000.    
      -1.0000E+30 -1.0000E+30 -1.0000E+30 -1.0000E+30 -1.0000E+30 -1.0000E+30 -1.0000E+30 -1.0000E+30 -1.0000E+30 -1.0000E+30
      -1.0000E+30 -1.0000E+30 -1.0000E+30 -1.0000E+30 -1.0000E+30 -1.0000E+30 -1.0000E+30 -1.0000E+30 -1.0000E+30 -1.0000E+30
      -1.0000E+30 -1.0000E+30 -1.0000E+30 -1.0000E+30 -1.0000E+30 -1.0000E+30 -1.0000E+30 -1.0000E+30 -1.0000E+30 -1.0000E+30
      -1.0000E+30 -1.0000E+30 -1.0000E+30   70.00       70.00       70.00       70.00       70.00       70.00       70.00    

 HEAD WILL BE SAVED ON UNIT   51 AT END OF TIME STEP    1, STRESS PERIOD    1

 DRAWDOWN WILL BE SAVED ON UNIT   52 AT END OF TIME STEP    1, STRESS PERIOD    1
1
  VOLUMETRIC BUDGET FOR ENTIRE MODEL AT END OF TIME STEP    1, STRESS PERIOD   1
  ------------------------------------------------------------------------------

     CUMULATIVE VOLUMES      L**3       RATES FOR THIS TIME STEP      L**3/T
     ------------------                 ------------------------

           IN:                                      IN:
           ---                                      ---
             STORAGE =           0.0000               STORAGE =           0.0000
       CONSTANT HEAD =       3.1173E-03         CONSTANT HEAD =       1.7318E-05
               WELLS =           0.0000                 WELLS =           0.0000
                  ET =           0.0000                    ET =           0.0000
            RECHARGE =           0.0000              RECHARGE =           0.0000
      STREAM LEAKAGE =           0.0000        STREAM LEAKAGE =           0.0000

            TOTAL IN =       3.1173E-03              TOTAL IN =       1.7318E-05

          OUT:                                     OUT:
          ----                                     ----
             STORAGE =           0.0000               STORAGE =           0.0000
       CONSTANT HEAD =       2.2023E-03         CONSTANT HEAD =       1.2235E-05
               WELLS =           0.0000                 WELLS =           0.0000
                  ET =           0.0000                    ET =           0.0000
            RECHARGE =           0.0000              RECHARGE =           0.0000
      STREAM LEAKAGE =           0.0000        STREAM LEAKAGE =           0.0000

           TOTAL OUT =       2.2023E-03             TOTAL OUT =       1.2235E-05

            IN - OUT =       9.1500E-04              IN - OUT =       5.0833E-06

 PERCENT DISCREPANCY =          34.40     PERCENT DISCREPANCY =          34.40






         TIME SUMMARY AT END OF TIME STEP    1 IN STRESS PERIOD    1
                    SECONDS     MINUTES      HOURS       DAYS        YEARS
                    -----------------------------------------------------------
   TIME STEP LENGTH 1.55520E+07 2.59200E+05  4320.0      180.00     0.49281    
 STRESS PERIOD TIME 1.55520E+07 2.59200E+05  4320.0      180.00     0.49281    
         TOTAL TIME 1.55520E+07 2.59200E+05  4320.0      180.00     0.49281    
1

 Run end date and time (yyyy/mm/dd hh:mm:ss): 2023/05/25 14:06:34
 Elapsed run time:  0.215 Seconds

