                                  MODFLOW-2005     
      U.S. GEOLOGICAL SURVEY MODULAR FINITE-DIFFERENCE GROUND-WATER FLOW MODEL
                            VERSION 1.12.00 2/3/2017

 LIST FILE: BASE.list
                         UNIT    2

 OPENING BASE.dis
 FILE TYPE:DIS   UNIT   11   STATUS:OLD    
 FORMAT:FORMATTED              ACCESS:SEQUENTIAL          

 OPENING BASE.bas
 FILE TYPE:BAS6   UNIT   13   STATUS:OLD    
 FORMAT:FORMATTED              ACCESS:SEQUENTIAL          

 OPENING BASE.lpf
 FILE TYPE:LPF   UNIT   15   STATUS:OLD    
 FORMAT:FORMATTED              ACCESS:SEQUENTIAL          

 OPENING BASE.oc
 FILE TYPE:OC   UNIT   14   STATUS:OLD    
 FORMAT:FORMATTED              ACCESS:SEQUENTIAL          

 OPENING BASE.pcg
 FILE TYPE:PCG   UNIT   27   STATUS:OLD    
 FORMAT:FORMATTED              ACCESS:SEQUENTIAL          

 OPENING BASE.rch
 FILE TYPE:RCH   UNIT   19   STATUS:OLD    
 FORMAT:FORMATTED              ACCESS:SEQUENTIAL          

 OPENING BASE.evt
 FILE TYPE:EVT   UNIT   22   STATUS:OLD    
 FORMAT:FORMATTED              ACCESS:SEQUENTIAL          

 OPENING BASE.wel
 FILE TYPE:WEL   UNIT   20   STATUS:OLD    
 FORMAT:FORMATTED              ACCESS:SEQUENTIAL          

 OPENING BASE.str
 FILE TYPE:STR   UNIT  118   STATUS:OLD    
 FORMAT:FORMATTED              ACCESS:SEQUENTIAL          

 OPENING BASE.cbc
 FILE TYPE:DATA(BINARY)   UNIT   53   STATUS:REPLACE
 FORMAT:BINARY                 ACCESS:SEQUENTIAL          

 OPENING BASE.hds
 FILE TYPE:DATA(BINARY)   UNIT   51   STATUS:REPLACE
 FORMAT:BINARY                 ACCESS:SEQUENTIAL          

 OPENING BASE.ddn
 FILE TYPE:DATA(BINARY)   UNIT   52   STATUS:REPLACE
 FORMAT:BINARY                 ACCESS:SEQUENTIAL          

 BAS -- BASIC PACKAGE, VERSION 7, 5/2/2005 INPUT READ FROM UNIT   13
 
 MODFLOW was compiled using mixed precision
 Precision of REAL variables:           6
 Precision of DOUBLE PRECISION variables:          15

 DISCRETIZATION INPUT DATA READ FROM UNIT   11
 # DIS package for  MODFLOW-2005, generated by Flopy.
    3 LAYERS        50 ROWS        50 COLUMNS
    1 STRESS PERIOD(S) IN SIMULATION
 MODEL TIME UNIT IS DAYS
 MODEL LENGTH UNIT IS METERS
  Confining bed flag for each layer:
   0   0   0

                     DELR =   1000.00    

                     DELC =   1000.00    



           TOP ELEVATION OF LAYER 1
 READING ON UNIT   11 WITH FORMAT: (50E15.6)           



             MODEL LAYER BOTTOM EL. FOR LAYER   1
 READING ON UNIT   11 WITH FORMAT: (50E15.6)           



             MODEL LAYER BOTTOM EL. FOR LAYER   2
 READING ON UNIT   11 WITH FORMAT: (50E15.6)           



             MODEL LAYER BOTTOM EL. FOR LAYER   3
 READING ON UNIT   11 WITH FORMAT: (50E15.6)           


 STRESS PERIOD     LENGTH       TIME STEPS     MULTIPLIER FOR DELT    SS FLAG
 ----------------------------------------------------------------------------
        1         180.0000          1                    1.000         SS

 STEADY-STATE SIMULATION



 
 # BAS6 package for  MODFLOW-2005, generated by Flopy.                           
 THE FREE FORMAT OPTION HAS BEEN SELECTED



                     BOUNDARY ARRAY FOR LAYER   1
 READING ON UNIT   13 WITH FORMAT: (50I10)             



                     BOUNDARY ARRAY FOR LAYER   2
 READING ON UNIT   13 WITH FORMAT: (50I10)             



                     BOUNDARY ARRAY FOR LAYER   3
 READING ON UNIT   13 WITH FORMAT: (50I10)             

 AQUIFER HEAD WILL BE SET TO  -999.99     AT ALL NO-FLOW NODES (IBOUND=0).



                       INITIAL HEAD FOR LAYER   1
 READING ON UNIT   13 WITH FORMAT: (50E15.6)           



                       INITIAL HEAD FOR LAYER   2
 READING ON UNIT   13 WITH FORMAT: (50E15.6)           



                       INITIAL HEAD FOR LAYER   3
 READING ON UNIT   13 WITH FORMAT: (50E15.6)           
 # OC package for  MODFLOW-2005, generated by Flopy.

 OUTPUT CONTROL IS SPECIFIED ONLY AT TIME STEPS FOR WHICH OUTPUT IS DESIRED
 COMPACT CELL-BY-CELL BUDGET FILES WILL BE WRITTEN
 AUXILIARY DATA WILL BE SAVED IN CELL-BY-CELL BUDGET FILES
 HEAD PRINT FORMAT CODE IS   0    DRAWDOWN PRINT FORMAT CODE IS   0
 HEADS WILL BE SAVED ON UNIT   51    DRAWDOWNS WILL BE SAVED ON UNIT   52

 LPF -- LAYER-PROPERTY FLOW PACKAGE, VERSION 7, 5/2/2005
         INPUT READ FROM UNIT   15
 # LPF package for  MODFLOW-2005, generated by Flopy.
 CELL-BY-CELL FLOWS WILL BE SAVED ON UNIT   53
 HEAD AT CELLS THAT CONVERT TO DRY= -1.00000E+30
 No named parameters

   LAYER FLAGS:
 LAYER       LAYTYP        LAYAVG         CHANI        LAYVKA        LAYWET
 ---------------------------------------------------------------------------
    1             1             0     0.000E+00             0             0
    2             1             0     0.000E+00             0             0
    3             1             0     0.000E+00             0             0

   INTERPRETATION OF LAYER FLAGS:
                        INTERBLOCK     HORIZONTAL    DATA IN
         LAYER TYPE   TRANSMISSIVITY   ANISOTROPY   ARRAY VKA   WETTABILITY
 LAYER      (LAYTYP)      (LAYAVG)       (CHANI)      (LAYVKA)      (LAYWET)
 ---------------------------------------------------------------------------
    1   CONVERTIBLE      HARMONIC      VARIABLE    VERTICAL K  NON-WETTABLE
    2   CONVERTIBLE      HARMONIC      VARIABLE    VERTICAL K  NON-WETTABLE
    3   CONVERTIBLE      HARMONIC      VARIABLE    VERTICAL K  NON-WETTABLE

 WETTING CAPABILITY IS NOT ACTIVE IN ANY LAYER

    HYD. COND. ALONG ROWS =   25.0000     FOR LAYER   1

   HORIZ. ANI. (COL./ROW) =   1.00000     FOR LAYER   1



                VERTICAL HYD. COND. FOR LAYER   1
 READING ON UNIT   15 WITH FORMAT: (50E15.6)           

    HYD. COND. ALONG ROWS =   25.0000     FOR LAYER   2

   HORIZ. ANI. (COL./ROW) =   1.00000     FOR LAYER   2



                VERTICAL HYD. COND. FOR LAYER   2
 READING ON UNIT   15 WITH FORMAT: (50E15.6)           

    HYD. COND. ALONG ROWS =   25.0000     FOR LAYER   3

   HORIZ. ANI. (COL./ROW) =   1.00000     FOR LAYER   3



                VERTICAL HYD. COND. FOR LAYER   3
 READING ON UNIT   15 WITH FORMAT: (50E15.6)           

 WEL -- WELL PACKAGE, VERSION 7, 5/2/2005 INPUT READ FROM UNIT   20
 # WEL package for  MODFLOW-2005, generated by Flopy.
 No named parameters
 MAXIMUM OF      2 ACTIVE WELLS AT ONE TIME


     0 Well parameters

 EVT -- EVAPOTRANSPIRATION PACKAGE, VERSION 7, 5/2/2005
         INPUT READ FROM UNIT   22
 # EVT package for  MODFLOW-2005, generated by Flopy.
 No named parameters
 OPTION 3 -- EVAPOTRANSPIRATION FROM HIGHEST ACTIVE NODE IN EACH VERTICAL COLUMN
 CELL-BY-CELL FLOWS WILL BE SAVED ON UNIT   53


     0 Evapotranspiration parameters

 RCH -- RECHARGE PACKAGE, VERSION 7, 5/2/2005 INPUT READ FROM UNIT   19
 # RCH package for  MODFLOW-2005, generated by Flopy.
 No named parameters
 OPTION 3 -- RECHARGE TO HIGHEST ACTIVE NODE IN EACH VERTICAL COLUMN


     0 Recharge parameters

 STR -- STREAM PACKAGE, VERSION 7, 5/2/2005 INPUT READ FROM UNIT  118
 # STR package for  MODFLOW-2005, generated by Flopy.
 No named parameters
 MAXIMUM OF     49 ACTIVE STREAM NODES AT ONE TIME
 NUMBER OF STREAM SEGMENTS IS      3
 NUMBER OF STREAM TRIBUTARIES IS      2
 STREAM STAGES WILL BE CALCULATED USING A CONSTANT OF 86400.0000
 CELL BUDGETS WILL BE SAVED ON UNITS   53 AND   53


     0 Stream parameters

 PCG -- CONJUGATE-GRADIENT SOLUTION PACKAGE, VERSION 7, 5/2/2005
 # PCG package for  MODFLOW-2005, generated by Flopy.
 MAXIMUM OF     50 CALLS OF SOLUTION ROUTINE
 MAXIMUM OF     30 INTERNAL ITERATIONS PER CALL TO SOLUTION ROUTINE
 MATRIX PRECONDITIONING TYPE :    1



                                    SOLUTION BY THE CONJUGATE-GRADIENT METHOD
                                   -------------------------------------------
                    MAXIMUM NUMBER OF CALLS TO PCG ROUTINE =       50
                        MAXIMUM ITERATIONS PER CALL TO PCG =       30
                               MATRIX PRECONDITIONING TYPE =        1
        RELAXATION FACTOR (ONLY USED WITH PRECOND. TYPE 1) =    0.10000E+01
 PARAMETER OF POLYNOMIAL PRECOND. = 2 (2) OR IS CALCULATED :        0
                         HEAD CHANGE CRITERION FOR CLOSURE =    0.10000E-04
                     RESIDUAL CHANGE CRITERION FOR CLOSURE =    0.10000E-04
            PCG HEAD AND RESIDUAL CHANGE PRINTOUT INTERVAL =      999
     PRINTING FROM SOLVER IS LIMITED(1) OR SUPPRESSED (>1) =        3
                            STEADY-STATE DAMPING PARAMETER =    0.10000E+01
                               TRANSIENT DAMPING PARAMETER =    0.10000E+01
1
                            STRESS PERIOD NO.    1, LENGTH =   180.0000    
                            -----------------------------------------------

                              NUMBER OF TIME STEPS =     1

                               MULTIPLIER FOR DELT =     1.000

                            INITIAL TIME STEP SIZE =   180.0000    

 WELL NO.  LAYER   ROW   COL   STRESS RATE         
 --------------------------------------------------
      1      3     21     38      -1810.    
      2      1     19     19      -5143.    

      2 WELLS



                         ET SURFACE
 READING ON UNIT   22 WITH FORMAT: (50E15.6)           



            EVAPOTRANSPIRATION RATE
 READING ON UNIT   22 WITH FORMAT: (50E15.6)           



                   EXTINCTION DEPTH
 READING ON UNIT   22 WITH FORMAT: (50E15.6)           



                           RECHARGE
 READING ON UNIT   19 WITH FORMAT: (50E15.6)           

     49 STREAM REACHES
 
 SOLVING FOR HEAD 

 OUTPUT CONTROL FOR STRESS PERIOD    1   TIME STEP    1
    SAVE HEAD FOR ALL LAYERS
    SAVE DRAWDOWN FOR ALL LAYERS
    SAVE BUDGET
    PRINT HEAD FOR ALL LAYERS
    PRINT BUDGET
 UBDSV2 SAVING "   CONSTANT HEAD" ON UNIT  53 AT TIME STEP  1, STRESS PERIOD   1
 UBDSV1 SAVING "FLOW RIGHT FACE " ON UNIT  53 AT TIME STEP  1, STRESS PERIOD   1
 UBDSV1 SAVING "FLOW FRONT FACE " ON UNIT  53 AT TIME STEP  1, STRESS PERIOD   1
 UBDSV1 SAVING "FLOW LOWER FACE " ON UNIT  53 AT TIME STEP  1, STRESS PERIOD   1
 UBDSV3 SAVING "              ET" ON UNIT  53 AT TIME STEP  1, STRESS PERIOD   1
 UBDSV4 SAVING "  STREAM LEAKAGE" ON UNIT  53 AT TIME STEP  1, STRESS PERIOD   1
 UBDSV4 SAVING "STREAM FLOW OUT " ON UNIT  53 AT TIME STEP  1, STRESS PERIOD   1
1
              HEAD IN LAYER   1 AT END OF TIME STEP   1 IN STRESS PERIOD    1
  ---------------------------------------------------------------------------

            1           2           3           4           5           6           7           8           9          10
           11          12          13          14          15          16          17          18          19          20
           21          22          23          24          25          26          27          28          29          30
           31          32          33          34          35          36          37          38          39          40
           41          42          43          44          45          46          47          48          49          50
 ........................................................................................................................
   1  -1000.0     -1000.0     -1000.0     -1000.0     -1000.0     -1000.0       72.57       72.54       72.48       72.41    
        72.34       72.28       72.22       72.14       72.06       71.96       71.88       71.79       71.70       71.62    
        71.54       71.46       71.39       71.32       71.25       71.18       71.11       71.05       70.99       70.93    
        70.87       70.82       70.76       70.71       70.66       70.61       70.56       70.51       70.47       70.42    
        70.37       70.33       70.29       70.25       70.20       70.16       70.12       70.08       70.04       70.00    
   2  -1000.0     -1000.0     -1000.0     -1000.0     -1000.0       72.63       72.59       72.54       72.48       72.40    
        72.35       72.29       72.22       72.14       72.05       71.96       71.87       71.79       71.70       71.62    
        71.54       71.46       71.39       71.31       71.24       71.18       71.11       71.05       70.99       70.93    
        70.87       70.82       70.76       70.71       70.66       70.61       70.56       70.51       70.46       70.42    
        70.37       70.33       70.29       70.24       70.20       70.16       70.12       70.08       70.04       70.00    
   3  -1000.0     -1000.0     -1000.0     -1000.0       72.68       72.64       72.59       72.54       72.47       72.41    
        72.35       72.29       72.22       72.14       72.05       71.96       71.87       71.78       71.70       71.61    
        71.53       71.45       71.38       71.31       71.24       71.17       71.11       71.04       70.98       70.93    
        70.87       70.81       70.76       70.71       70.65       70.60       70.56       70.51       70.46       70.42    
        70.37       70.33       70.29       70.24       70.20       70.16       70.12       70.08       70.04       70.00    
   4  -1000.0     -1000.0     -1000.0       72.73       72.70       72.65       72.60       72.53       72.48       72.42    
        72.36       72.29       72.22       72.14       72.05       71.95       71.86       71.77       71.69       71.60    
        71.52       71.45       71.37       71.30       71.23       71.16       71.10       71.04       70.98       70.92    
        70.86       70.81       70.75       70.70       70.65       70.60       70.55       70.51       70.46       70.41    
        70.37       70.33       70.28       70.24       70.20       70.16       70.12       70.08       70.04       70.00    
   5  -1000.0     -1000.0       72.78       72.75       72.70       72.65       72.59       72.54       72.49       72.43    
        72.36       72.29       72.21       72.13       72.04       71.95       71.85       71.76       71.68       71.59    
        71.51       71.44       71.36       71.29       71.22       71.16       71.09       71.03       70.97       70.91    
        70.86       70.80       70.75       70.70       70.65       70.60       70.55       70.50       70.45       70.41    
        70.37       70.32       70.28       70.24       70.20       70.16       70.12       70.08       70.04       70.00    
   6  -1000.0       72.81       72.79       72.75       72.70       72.65       72.60       72.55       72.49       72.43    
        72.36       72.29       72.21       72.12       72.03       71.93       71.84       71.75       71.66       71.58    
        71.50       71.42       71.35       71.28       71.21       71.14       71.08       71.02       70.96       70.90    
        70.85       70.79       70.74       70.69       70.64       70.59       70.54       70.49       70.45       70.40    
        70.36       70.32       70.28       70.24       70.20       70.16       70.12       70.08       70.04       70.00    
   7    72.84       72.82       72.79       72.75       72.70       72.66       72.61       72.56       72.50       72.43    
        72.36       72.28       72.20       72.11       72.02       71.92       71.82       71.73       71.64       71.56    
        71.48       71.40       71.33       71.26       71.19       71.13       71.07       71.01       70.95       70.89    
        70.84       70.78       70.73       70.68       70.63       70.58       70.53       70.49       70.44       70.40    
        70.36       70.31       70.27       70.23       70.19       70.15       70.11       70.08       70.04       70.00    
   8    72.83       72.81       72.78       72.74       72.70       72.66       72.61       72.56       72.50       72.43    
        72.36       72.28       72.19       72.10       72.00       71.90       71.80       71.71       71.62       71.54    
        71.46       71.38       71.31       71.24       71.18       71.11       71.05       71.00       70.94       70.88    
        70.83       70.77       70.72       70.67       70.62       70.57       70.53       70.48       70.44       70.39    
        70.35       70.31       70.27       70.23       70.19       70.15       70.11       70.07       70.04       70.00    
   9    72.82       72.81       72.77       72.74       72.71       72.67       72.62       72.56       72.50       72.43    
        72.35       72.27       72.18       72.08       71.98       71.88       71.78       71.68       71.59       71.51    
        71.43       71.36       71.29       71.22       71.16       71.10       71.04       70.98       70.92       70.87    
        70.82       70.76       70.71       70.66       70.61       70.56       70.52       70.47       70.43       70.38    
        70.34       70.30       70.26       70.22       70.18       70.15       70.11       70.07       70.04       70.00    
  10    72.82       72.80       72.78       72.75       72.71       72.67       72.62       72.56       72.49       72.42    
        72.34       72.26       72.16       72.07       71.96       71.85       71.75       71.65       71.56       71.48    
        71.40       71.33       71.26       71.19       71.13       71.08       71.02       70.96       70.91       70.86    
        70.80       70.75       70.70       70.65       70.60       70.55       70.50       70.46       70.42       70.37    
        70.33       70.29       70.25       70.22       70.18       70.14       70.11       70.07       70.04       70.00    
  11    72.81       72.80       72.78       72.75       72.71       72.67       72.62       72.56       72.49       72.41    
        72.33       72.24       72.15       72.04       71.93       71.82       71.72       71.62       71.52       71.44    
        71.36       71.29       71.23       71.17       71.11       71.05       71.00       70.95       70.89       70.84    
        70.79       70.74       70.69       70.64       70.59       70.54       70.49       70.45       70.40       70.36    
        70.32       70.28       70.25       70.21       70.17       70.14       70.10       70.07       70.03       70.00    
  12    72.81       72.80       72.78       72.75       72.71       72.67       72.62       72.55       72.48       72.41    
        72.32       72.23       72.13       72.02       71.90       71.79       71.67       71.57       71.48       71.39    
        71.32       71.25       71.19       71.13       71.08       71.03       70.98       70.93       70.88       70.83    
        70.77       70.72       70.67       70.62       70.57       70.52       70.48       70.43       70.39       70.35    
        70.31       70.27       70.24       70.20       70.17       70.13       70.10       70.07       70.03       70.00    
  13    72.81       72.80       72.78       72.75       72.72       72.67       72.62       72.55       72.48       72.40    
        72.31       72.21       72.10       71.99       71.87       71.74       71.62       71.51       71.42       71.33    
        71.26       71.20       71.15       71.10       71.05       71.00       70.96       70.91       70.86       70.81    
        70.76       70.71       70.66       70.61       70.56       70.51       70.46       70.42       70.38       70.34    
        70.30       70.26       70.23       70.19       70.16       70.13       70.10       70.06       70.03       70.00    
  14    72.81       72.80       72.78       72.76       72.72       72.67       72.62       72.55       72.48       72.39    
        72.30       72.19       72.08       71.96       71.83       71.69       71.56       71.45       71.35       71.27    
        71.20       71.15       71.11       71.06       71.02       70.98       70.94       70.89       70.84       70.80    
        70.75       70.69       70.64       70.59       70.54       70.49       70.44       70.40       70.36       70.32    
        70.28       70.25       70.22       70.19       70.15       70.12       70.09       70.06       70.03       70.00    
  15    72.82       72.81       72.79       72.76       72.72       72.67       72.62       72.55       72.47       72.38    
        72.29       72.18       72.06       71.93       71.78       71.64       71.49       71.36       71.25       71.18    
        71.13       71.09       71.06       71.03       70.99       70.96       70.92       70.88       70.83       70.78    
        70.73       70.68       70.63       70.57       70.52       70.47       70.42       70.38       70.34       70.30    
        70.27       70.24       70.21       70.18       70.15       70.12       70.09       70.06       70.03       70.00    
  16    72.82       72.81       72.79       72.76       72.73       72.68       72.62       72.55       72.47       72.38    
        72.28       72.16       72.04       71.90       71.74       71.57       71.41       71.25       71.13       71.07    
        71.04       71.03       71.01       70.99       70.97       70.94       70.90       70.86       70.82       70.77    
        70.72       70.67       70.61       70.56       70.50       70.45       70.40       70.35       70.31       70.28    
        70.25       70.22       70.19       70.17       70.14       70.11       70.09       70.06       70.03       70.00    
  17    72.83       72.82       72.80       72.77       72.73       72.68       72.62       72.55       72.47       72.38    
        72.27       72.16       72.02       71.87       71.70       71.51       71.31       71.11       70.95       70.92    
        70.94       70.96       70.97       70.96       70.95       70.92       70.89       70.85       70.81       70.76    
        70.71       70.66       70.60       70.54       70.48       70.42       70.37       70.32       70.28       70.25    
        70.23       70.20       70.18       70.16       70.13       70.11       70.08       70.05       70.03       70.00    
  18    72.84       72.83       72.81       72.78       72.74       72.69       72.63       72.56       72.48       72.38    
        72.28       72.15       72.01       71.86       71.67       71.46       71.21       70.92       70.63       70.73    
        70.84       70.91       70.94       70.94       70.94       70.91       70.89       70.85       70.81       70.76    
        70.71       70.65       70.59       70.53       70.46       70.39       70.33       70.27       70.24       70.22    
        70.20       70.19       70.17       70.15       70.13       70.10       70.08       70.05       70.03       70.00    
  19    72.85       72.84       72.82       72.79       72.75       72.70       72.64       72.57       72.49       72.39    
        72.28       72.16       72.02       71.86       71.67       71.44       71.15       70.73       69.90       70.54    
        70.78       70.88       70.93       70.94       70.94       70.92       70.89       70.85       70.81       70.76    
        70.70       70.65       70.58       70.51       70.44       70.36       70.28       70.21       70.19       70.19    
        70.18       70.17       70.16       70.14       70.12       70.10       70.08       70.05       70.03       70.00    
  20    72.86       72.85       72.83       72.80       72.76       72.71       72.65       72.58       72.50       72.40    
        72.30       72.17       72.04       71.88       71.69       71.48       71.23       70.94       70.65       70.75    
        70.86       70.92       70.95       70.96       70.95       70.93       70.90       70.86       70.81       70.76    
        70.71       70.65       70.58       70.51       70.42       70.32       70.21       70.10       70.13       70.15    
        70.16       70.16       70.15       70.14       70.12       70.10       70.08       70.05       70.03       70.00    
  21    72.87       72.86       72.84       72.81       72.77       72.73       72.67       72.60       72.52       72.42    
        72.32       72.20       72.06       71.91       71.74       71.55       71.35       71.14       70.98       70.96    
        70.98       70.99       71.00       70.99       70.97       70.95       70.91       70.87       70.83       70.77    
        70.72       70.65       70.59       70.51       70.42       70.31       70.15       69.85       70.06       70.13    
        70.16       70.16       70.15       70.14       70.12       70.10       70.08       70.05       70.03       70.00    
  22    72.89       72.88       72.86       72.83       72.79       72.74       72.68       72.61       72.54       72.44    
        72.34       72.23       72.10       71.96       71.80       71.63       71.46       71.31       71.19       71.12    
        71.09       71.07       71.06       71.04       71.01       70.98       70.94       70.89       70.84       70.79    
        70.73       70.67       70.60       70.52       70.44       70.34       70.22       70.11       70.14       70.16    
        70.17       70.17       70.16       70.15       70.13       70.10       70.08       70.05       70.03       70.00    
  23    72.90       72.89       72.87       72.84       72.81       72.76       72.70       72.64       72.56       72.47    
        72.37       72.26       72.14       72.01       71.87       71.71       71.57       71.44       71.33       71.25    
        71.20       71.16       71.12       71.09       71.05       71.01       70.96       70.92       70.87       70.81    
        70.75       70.69       70.62       70.55       70.47       70.39       70.30       70.23       70.21       70.21    
        70.20       70.19       70.17       70.15       70.13       70.11       70.08       70.06       70.03       70.00    
  24    72.92       72.91       72.89       72.86       72.83       72.78       72.72       72.66       72.58       72.50    
        72.40       72.30       72.18       72.06       71.93       71.79       71.66       71.54       71.44       71.35    
        71.29       71.23       71.18       71.14       71.09       71.05       71.00       70.94       70.89       70.83    
        70.77       70.71       70.65       70.58       70.50       70.43       70.37       70.31       70.27       70.25    
        70.23       70.21       70.19       70.17       70.14       70.11       70.09       70.06       70.03       70.00    
  25    72.93       72.93       72.91       72.88       72.84       72.80       72.75       72.68       72.61       72.53    
        72.44       72.34       72.23       72.11       71.99       71.86       71.74       71.63       71.53       71.44    
        71.37       71.30       71.25       71.19       71.14       71.08       71.03       70.98       70.92       70.86    
        70.80       70.74       70.67       70.61       70.54       70.48       70.42       70.36       70.32       70.29    
        70.26       70.23       70.21       70.18       70.15       70.12       70.09       70.06       70.03       70.00    
  26    72.95       72.94       72.93       72.90       72.87       72.82       72.77       72.71       72.64       72.56    
        72.47       72.38       72.27       72.16       72.05       71.92       71.81       71.70       71.60       71.52    
        71.44       71.37       71.30       71.24       71.18       71.12       71.07       71.01       70.95       70.89    
        70.83       70.77       70.70       70.64       70.58       70.52       70.46       70.41       70.36       70.32    
        70.29       70.26       70.23       70.19       70.16       70.13       70.10       70.07       70.03       70.00    
  27    72.97       72.96       72.95       72.92       72.89       72.84       72.79       72.73       72.66       72.59    
        72.50       72.41       72.31       72.21       72.10       71.98       71.87       71.77       71.67       71.58    
        71.50       71.43       71.36       71.29       71.23       71.16       71.10       71.04       70.98       70.92    
        70.86       70.79       70.73       70.67       70.61       70.55       70.50       70.44       70.40       70.35    
        70.32       70.28       70.24       70.21       70.17       70.14       70.10       70.07       70.04       70.00    
  28    72.99       72.98       72.96       72.94       72.91       72.87       72.82       72.76       72.69       72.62    
        72.54       72.45       72.35       72.25       72.15       72.03       71.93       71.82       71.73       71.64    
        71.56       71.48       71.40       71.33       71.27       71.20       71.14       71.07       71.01       70.95    
        70.89       70.82       70.76       70.70       70.64       70.58       70.53       70.48       70.43       70.38    
        70.34       70.30       70.26       70.22       70.19       70.15       70.11       70.07       70.04       70.00    
  29    73.01       73.00       72.98       72.96       72.93       72.89       72.84       72.78       72.72       72.65    
        72.57       72.48       72.39       72.29       72.19       72.08       71.98       71.88       71.78       71.69    
        71.61       71.53       71.45       71.38       71.31       71.24       71.17       71.11       71.04       70.98    
        70.92       70.85       70.79       70.73       70.67       70.61       70.56       70.50       70.45       70.41    
        70.36       70.32       70.28       70.24       70.20       70.16       70.12       70.08       70.04       70.00    
  30    73.03       73.02       73.00       72.98       72.95       72.91       72.86       72.81       72.75       72.68    
        72.60       72.52       72.43       72.33       72.23       72.12       72.02       71.92       71.83       71.74    
        71.65       71.57       71.49       71.42       71.34       71.27       71.21       71.14       71.07       71.01    
        70.94       70.88       70.82       70.76       70.70       70.64       70.58       70.53       70.48       70.43    
        70.38       70.34       70.29       70.25       70.21       70.17       70.12       70.08       70.04       70.00    
  31    73.05       73.04       73.02       73.00       72.97       72.93       72.88       72.83       72.77       72.70    
        72.63       72.55       72.46       72.37       72.27       72.16       72.06       71.96       71.87       71.78    
        71.69       71.61       71.53       71.45       71.38       71.31       71.24       71.17       71.10       71.04    
        70.97       70.91       70.84       70.78       70.72       70.66       70.61       70.55       70.50       70.45    
        70.40       70.35       70.31       70.26       70.22       70.17       70.13       70.09       70.04       70.00    
  32    73.06       73.06       73.04       73.02       72.99       72.95       72.91       72.85       72.80       72.73    
        72.66       72.58       72.49       72.40       72.30       72.20       72.10       72.00       71.91       71.82    
        71.73       71.65       71.57       71.49       71.41       71.34       71.27       71.20       71.13       71.06    
        71.00       70.93       70.87       70.81       70.75       70.69       70.63       70.57       70.52       70.47    
        70.42       70.37       70.32       70.27       70.23       70.18       70.14       70.09       70.04       70.00    
  33    73.08       73.07       73.06       73.04       73.01       72.97       72.93       72.88       72.82       72.75    
        72.68       72.60       72.52       72.43       72.33       72.23       72.13       72.04       71.94       71.85    
        71.77       71.68       71.60       71.52       71.44       71.37       71.30       71.23       71.16       71.09    
        71.02       70.96       70.89       70.83       70.77       70.71       70.65       70.59       70.54       70.49    
        70.43       70.38       70.33       70.28       70.24       70.19       70.14       70.09       70.05       70.00    
  34    73.10       73.09       73.08       73.05       73.03       72.99       72.95       72.90       72.84       72.78    
        72.71       72.63       72.55       72.46       72.36       72.26       72.16       72.07       71.97       71.88    
        71.80       71.71       71.63       71.55       71.47       71.40       71.32       71.25       71.18       71.11    
        71.04       70.98       70.91       70.85       70.79       70.73       70.67       70.61       70.56       70.50    
        70.45       70.40       70.34       70.29       70.24       70.19       70.15       70.10       70.05       70.00    
  35    73.11       73.11       73.09       73.07       73.04       73.01       72.96       72.91       72.86       72.80    
        72.73       72.65       72.57       72.48       72.39       72.29       72.19       72.10       72.00       71.91    
        71.83       71.74       71.66       71.58       71.50       71.42       71.35       71.28       71.20       71.13    
        71.07       71.00       70.93       70.87       70.81       70.75       70.69       70.63       70.57       70.52    
        70.46       70.41       70.35       70.30       70.25       70.20       70.15       70.10       70.05       70.00    
  36    73.13       73.12       73.11       73.09       73.06       73.02       72.98       72.93       72.88       72.82    
        72.75       72.67       72.59       72.51       72.41       72.31       72.22       72.12       72.03       71.94    
        71.85       71.77       71.68       71.60       71.52       71.45       71.37       71.30       71.23       71.16    
        71.09       71.02       70.95       70.89       70.83       70.76       70.70       70.64       70.59       70.53    
        70.47       70.42       70.36       70.31       70.26       70.21       70.15       70.10       70.05       70.00    
  37    73.14       73.13       73.12       73.10       73.07       73.04       73.00       72.95       72.89       72.83    
        72.77       72.69       72.61       72.53       72.43       72.33       72.24       72.14       72.05       71.96    
        71.88       71.79       71.71       71.63       71.55       71.47       71.39       71.32       71.25       71.18    
        71.11       71.04       70.97       70.91       70.84       70.78       70.72       70.66       70.60       70.54    
        70.48       70.43       70.37       70.32       70.26       70.21       70.16       70.10       70.05       70.00    
  38    73.15       73.15       73.13       73.11       73.08       73.05       73.01       72.96       72.91       72.85    
        72.78       72.71       72.63       72.54       72.45       72.35       72.26       72.17       72.07       71.98    
        71.90       71.81       71.73       71.65       71.57       71.49       71.41       71.34       71.26       71.19    
        71.12       71.06       70.99       70.92       70.86       70.79       70.73       70.67       70.61       70.55    
        70.49       70.44       70.38       70.32       70.27       70.22       70.16       70.11       70.05       70.00    
  39    73.16       73.16       73.14       73.12       73.09       73.06       73.02       72.97       72.92       72.86    
        72.80       72.72       72.64       72.56       72.47       72.37       72.28       72.18       72.09       72.00    
        71.92       71.83       71.75       71.66       71.59       71.51       71.43       71.36       71.28       71.21    
        71.14       71.07       71.00       70.94       70.87       70.81       70.74       70.68       70.62       70.56    
        70.50       70.45       70.39       70.33       70.28       70.22       70.16       70.11       70.05       70.00    
  40    73.17       73.17       73.15       73.13       73.10       73.07       73.03       72.98       72.93       72.87    
        72.81       72.74       72.66       72.57       72.48       72.39       72.29       72.20       72.11       72.02    
        71.93       71.85       71.76       71.68       71.60       71.52       71.45       71.37       71.30       71.23    
        71.15       71.08       71.02       70.95       70.88       70.82       70.76       70.69       70.63       70.57    
        70.51       70.45       70.39       70.34       70.28       70.22       70.17       70.11       70.06       70.00    
  41    73.19       73.18       73.16       73.14       73.11       73.08       73.04       72.99       72.94       72.88    
        72.82       72.75       72.67       72.59       72.50       72.40       72.31       72.21       72.12       72.04    
        71.95       71.86       71.78       71.70       71.62       71.54       71.46       71.39       71.31       71.24    
        71.17       71.10       71.03       70.96       70.89       70.83       70.77       70.70       70.64       70.58    
        70.52       70.46       70.40       70.34       70.28       70.23       70.17       70.11       70.06       70.00    
  42    73.21       73.19       73.17       73.14       73.12       73.08       73.04       73.00       72.95       72.89    
        72.83       72.76       72.68       72.60       72.51       72.41       72.32       72.23       72.14       72.05    
        71.96       71.88       71.79       71.71       71.63       71.55       71.47       71.40       71.32       71.25    
        71.18       71.11       71.04       70.97       70.90       70.84       70.77       70.71       70.65       70.59    
        70.53       70.47       70.41       70.35       70.29       70.23       70.17       70.11       70.06       70.00    
  43    73.22       73.21       73.18       73.15       73.12       73.09       73.05       73.00       72.95       72.89    
        72.83       72.76       72.69       72.61       72.52       72.42       72.33       72.24       72.15       72.06    
        71.97       71.89       71.80       71.72       71.64       71.56       71.49       71.41       71.33       71.26    
        71.19       71.12       71.05       70.98       70.91       70.85       70.78       70.72       70.65       70.59    
        70.53       70.47       70.41       70.35       70.29       70.23       70.17       70.12       70.06       70.00    
  44    73.23       73.22       73.20       73.16       73.12       73.08       73.05       73.00       72.95       72.90    
        72.83       72.77       72.69       72.61       72.52       72.43       72.34       72.25       72.16       72.07    
        71.98       71.90       71.81       71.73       71.65       71.57       71.50       71.42       71.34       71.27    
        71.20       71.13       71.06       70.99       70.92       70.85       70.79       70.72       70.66       70.60    
        70.54       70.47       70.41       70.35       70.29       70.24       70.18       70.12       70.06       70.00    
  45  -1000.0       73.22       73.20       73.17       73.13       73.08       73.04       73.00       72.95       72.90    
        72.84       72.77       72.70       72.62       72.53       72.44       72.35       72.25       72.17       72.08    
        71.99       71.91       71.82       71.74       71.66       71.58       71.50       71.43       71.35       71.28    
        71.21       71.13       71.06       71.00       70.93       70.86       70.79       70.73       70.67       70.60    
        70.54       70.48       70.42       70.36       70.30       70.24       70.18       70.12       70.06       70.00    
  46  -1000.0     -1000.0       73.20       73.17       73.14       73.09       73.04       73.00       72.95       72.89    
        72.84       72.77       72.70       72.62       72.53       72.44       72.35       72.26       72.17       72.08    
        72.00       71.91       71.83       71.75       71.67       71.59       71.51       71.43       71.36       71.28    
        71.21       71.14       71.07       71.00       70.93       70.87       70.80       70.73       70.67       70.61    
        70.54       70.48       70.42       70.36       70.30       70.24       70.18       70.12       70.06       70.00    
  47  -1000.0     -1000.0     -1000.0       73.16       73.13       73.09       73.05       72.99       72.94       72.89    
        72.83       72.77       72.70       72.62       72.54       72.45       72.35       72.27       72.18       72.09    
        72.00       71.92       71.84       71.75       71.67       71.59       71.52       71.44       71.36       71.29    
        71.22       71.15       71.07       71.01       70.94       70.87       70.80       70.74       70.67       70.61    
        70.55       70.48       70.42       70.36       70.30       70.24       70.18       70.12       70.06       70.00    
  48  -1000.0     -1000.0     -1000.0     -1000.0       73.12       73.09       73.05       73.00       72.93       72.88    
        72.83       72.77       72.70       72.62       72.54       72.45       72.36       72.27       72.18       72.09    
        72.01       71.92       71.84       71.76       71.68       71.60       71.52       71.44       71.37       71.29    
        71.22       71.15       71.08       71.01       70.94       70.87       70.81       70.74       70.68       70.61    
        70.55       70.49       70.42       70.36       70.30       70.24       70.18       70.12       70.06       70.00    
  49  -1000.0     -1000.0     -1000.0     -1000.0     -1000.0       73.08       73.04       73.00       72.94       72.87    
        72.82       72.76       72.70       72.62       72.54       72.45       72.36       72.27       72.18       72.10    
        72.01       71.93       71.84       71.76       71.68       71.60       71.52       71.45       71.37       71.30    
        71.22       71.15       71.08       71.01       70.94       70.87       70.81       70.74       70.68       70.61    
        70.55       70.49       70.43       70.36       70.30       70.24       70.18       70.12       70.06       70.00    
  50  -1000.0     -1000.0     -1000.0     -1000.0     -1000.0     -1000.0       73.03       73.00       72.94       72.88    
        72.81       72.76       72.70       72.62       72.54       72.45       72.36       72.27       72.18       72.10    
        72.01       71.93       71.84       71.76       71.68       71.60       71.52       71.45       71.37       71.30    
        71.22       71.15       71.08       71.01       70.94       70.88       70.81       70.74       70.68       70.61    
        70.55       70.49       70.43       70.36       70.30       70.24       70.18       70.12       70.06       70.00    
1
              HEAD IN LAYER   2 AT END OF TIME STEP   1 IN STRESS PERIOD    1
  ---------------------------------------------------------------------------

            1           2           3           4           5           6           7           8           9          10
           11          12          13          14          15          16          17          18          19          20
           21          22          23          24          25          26          27          28          29          30
           31          32          33          34          35          36          37          38          39          40
           41          42          43          44          45          46          47          48          49          50
 ........................................................................................................................
   1  -1000.0     -1000.0     -1000.0     -1000.0     -1000.0     -1000.0     -1000.0     -1000.0       72.48       72.41    
        72.34       72.28       72.22       72.14       72.06       71.96       71.88       71.79       71.70       71.62    
        71.54       71.46       71.39       71.32       71.25       71.18       71.11       71.05       70.99       70.93    
        70.87       70.82       70.76       70.71       70.66       70.61       70.56       70.51       70.47       70.42    
        70.37       70.33       70.29       70.25       70.20       70.16       70.12       70.08       70.04       70.00    
   2  -1000.0     -1000.0     -1000.0     -1000.0     -1000.0     -1000.0     -1000.0       72.54       72.48       72.40    
        72.35       72.29       72.22       72.14       72.05       71.96       71.87       71.79       71.70       71.62    
        71.54       71.46       71.39       71.31       71.24       71.18       71.11       71.05       70.99       70.93    
        70.87       70.82       70.76       70.71       70.66       70.61       70.56       70.51       70.46       70.42    
        70.37       70.33       70.29       70.24       70.20       70.16       70.12       70.08       70.04       70.00    
   3  -1000.0     -1000.0     -1000.0     -1000.0     -1000.0     -1000.0       72.59       72.54       72.47       72.41    
        72.35       72.29       72.22       72.14       72.05       71.96       71.87       71.78       71.70       71.61    
        71.53       71.45       71.38       71.31       71.24       71.17       71.11       71.04       70.98       70.93    
        70.87       70.81       70.76       70.71       70.65       70.60       70.56       70.51       70.46       70.42    
        70.37       70.33       70.29       70.24       70.20       70.16       70.12       70.08       70.04       70.00    
   4  -1000.0     -1000.0     -1000.0     -1000.0     -1000.0       72.65       72.60       72.53       72.48       72.42    
        72.36       72.29       72.22       72.14       72.05       71.95       71.86       71.77       71.69       71.60    
        71.52       71.45       71.37       71.30       71.23       71.16       71.10       71.04       70.98       70.92    
        70.86       70.81       70.75       70.70       70.65       70.60       70.55       70.51       70.46       70.41    
        70.37       70.33       70.28       70.24       70.20       70.16       70.12       70.08       70.04       70.00    
   5  -1000.0     -1000.0     -1000.0     -1000.0       72.70       72.65       72.59       72.54       72.49       72.43    
        72.36       72.29       72.21       72.13       72.04       71.95       71.85       71.76       71.68       71.59    
        71.51       71.44       71.36       71.29       71.22       71.16       71.09       71.03       70.97       70.91    
        70.86       70.80       70.75       70.70       70.65       70.60       70.55       70.50       70.45       70.41    
        70.37       70.32       70.28       70.24       70.20       70.16       70.12       70.08       70.04       70.00    
   6  -1000.0     -1000.0     -1000.0       72.75       72.70       72.65       72.60       72.55       72.49       72.43    
        72.36       72.29       72.21       72.12       72.03       71.93       71.84       71.75       71.66       71.58    
        71.50       71.42       71.35       71.28       71.21       71.14       71.08       71.02       70.96       70.90    
        70.85       70.79       70.74       70.69       70.64       70.59       70.54       70.49       70.45       70.40    
        70.36       70.32       70.28       70.24       70.20       70.16       70.12       70.08       70.04       70.00    
   7  -1000.0     -1000.0       72.79       72.75       72.70       72.66       72.61       72.56       72.50       72.43    
        72.36       72.28       72.20       72.11       72.02       71.92       71.82       71.73       71.64       71.56    
        71.48       71.40       71.33       71.26       71.19       71.13       71.07       71.01       70.95       70.89    
        70.84       70.78       70.73       70.68       70.63       70.58       70.53       70.49       70.44       70.40    
        70.36       70.31       70.27       70.23       70.19       70.15       70.11       70.08       70.04       70.00    
   8  -1000.0       72.81       72.78       72.74       72.70       72.66       72.61       72.56       72.50       72.43    
        72.36       72.28       72.19       72.10       72.00       71.90       71.80       71.71       71.62       71.54    
        71.46       71.38       71.31       71.24       71.18       71.11       71.05       70.99       70.94       70.88    
        70.83       70.77       70.72       70.67       70.62       70.57       70.53       70.48       70.44       70.39    
        70.35       70.31       70.27       70.23       70.19       70.15       70.11       70.07       70.04       70.00    
   9    72.82       72.81       72.77       72.74       72.71       72.67       72.62       72.56       72.50       72.43    
        72.35       72.27       72.18       72.08       71.98       71.88       71.78       71.68       71.59       71.51    
        71.43       71.36       71.29       71.22       71.16       71.10       71.04       70.98       70.92       70.87    
        70.82       70.76       70.71       70.66       70.61       70.56       70.52       70.47       70.43       70.38    
        70.34       70.30       70.26       70.22       70.18       70.15       70.11       70.07       70.04       70.00    
  10    72.82       72.80       72.78       72.75       72.71       72.67       72.62       72.56       72.49       72.42    
        72.34       72.26       72.16       72.07       71.96       71.85       71.75       71.65       71.56       71.48    
        71.40       71.33       71.26       71.19       71.13       71.08       71.02       70.96       70.91       70.86    
        70.80       70.75       70.70       70.65       70.60       70.55       70.50       70.46       70.42       70.37    
        70.33       70.29       70.25       70.22       70.18       70.14       70.11       70.07       70.04       70.00    
  11    72.81       72.80       72.78       72.75       72.71       72.67       72.62       72.56       72.49       72.41    
        72.33       72.24       72.15       72.04       71.93       71.82       71.72       71.62       71.52       71.44    
        71.36       71.29       71.23       71.17       71.11       71.05       71.00       70.95       70.89       70.84    
        70.79       70.74       70.69       70.64       70.59       70.54       70.49       70.45       70.40       70.36    
        70.32       70.28       70.25       70.21       70.17       70.14       70.10       70.07       70.03       70.00    
  12    72.81       72.80       72.78       72.75       72.71       72.67       72.62       72.55       72.48       72.41    
        72.32       72.23       72.13       72.02       71.90       71.79       71.67       71.57       71.48       71.39    
        71.32       71.25       71.19       71.13       71.08       71.03       70.98       70.93       70.88       70.83    
        70.77       70.72       70.67       70.62       70.57       70.52       70.48       70.43       70.39       70.35    
        70.31       70.27       70.24       70.20       70.17       70.13       70.10       70.07       70.03       70.00    
  13    72.81       72.80       72.78       72.75       72.72       72.67       72.62       72.55       72.48       72.40    
        72.31       72.21       72.10       71.99       71.87       71.74       71.62       71.51       71.42       71.33    
        71.26       71.20       71.15       71.10       71.05       71.00       70.96       70.91       70.86       70.81    
        70.76       70.71       70.66       70.61       70.56       70.51       70.46       70.42       70.38       70.34    
        70.30       70.26       70.23       70.19       70.16       70.13       70.10       70.06       70.03       70.00    
  14    72.81       72.80       72.78       72.76       72.72       72.67       72.62       72.55       72.48       72.39    
        72.30       72.19       72.08       71.96       71.83       71.69       71.56       71.45       71.35       71.27    
        71.20       71.15       71.11       71.06       71.02       70.98       70.94       70.89       70.84       70.80    
        70.75       70.69       70.64       70.59       70.54       70.49       70.44       70.40       70.36       70.32    
        70.28       70.25       70.22       70.19       70.15       70.12       70.09       70.06       70.03       70.00    
  15    72.82       72.81       72.79       72.76       72.72       72.67       72.62       72.55       72.47       72.38    
        72.29       72.18       72.06       71.93       71.78       71.64       71.49       71.36       71.25       71.18    
        71.13       71.09       71.06       71.03       70.99       70.96       70.92       70.88       70.83       70.78    
        70.73       70.68       70.63       70.57       70.52       70.47       70.42       70.38       70.34       70.30    
        70.27       70.24       70.21       70.18       70.15       70.12       70.09       70.06       70.03       70.00    
  16    72.82       72.81       72.79       72.76       72.73       72.68       72.62       72.55       72.47       72.38    
        72.28       72.16       72.04       71.90       71.74       71.57       71.41       71.25       71.13       71.07    
        71.04       71.03       71.01       70.99       70.97       70.94       70.90       70.86       70.82       70.77    
        70.72       70.67       70.61       70.56       70.50       70.45       70.40       70.35       70.31       70.28    
        70.25       70.22       70.19       70.17       70.14       70.11       70.09       70.06       70.03       70.00    
  17    72.83       72.82       72.80       72.77       72.73       72.68       72.62       72.55       72.47       72.38    
        72.27       72.16       72.02       71.87       71.70       71.51       71.31       71.11       70.95       70.92    
        70.94       70.96       70.97       70.96       70.95       70.92       70.89       70.85       70.81       70.76    
        70.71       70.66       70.60       70.54       70.48       70.42       70.37       70.32       70.28       70.25    
        70.23       70.20       70.18       70.16       70.13       70.11       70.08       70.05       70.03       70.00    
  18    72.84       72.83       72.81       72.78       72.74       72.69       72.63       72.56       72.48       72.38    
        72.28       72.15       72.01       71.86       71.67       71.46       71.21       70.92       70.63       70.73    
        70.84       70.91       70.94       70.94       70.94       70.91       70.89       70.85       70.81       70.76    
        70.71       70.65       70.59       70.53       70.46       70.39       70.33       70.27       70.24       70.22    
        70.20       70.19       70.17       70.15       70.13       70.10       70.08       70.05       70.03       70.00    
  19    72.85       72.84       72.82       72.79       72.75       72.70       72.64       72.57       72.49       72.39    
        72.28       72.16       72.02       71.86       71.67       71.44       71.15       70.73       69.90       70.54    
        70.78       70.88       70.93       70.94       70.94       70.92       70.89       70.85       70.81       70.76    
        70.70       70.65       70.58       70.51       70.44       70.36       70.28       70.21       70.19       70.19    
        70.18       70.17       70.16       70.14       70.12       70.10       70.08       70.05       70.03       70.00    
  20    72.86       72.85       72.83       72.80       72.76       72.71       72.65       72.58       72.50       72.40    
        72.30       72.17       72.04       71.88       71.69       71.48       71.23       70.94       70.65       70.75    
        70.86       70.92       70.95       70.96       70.95       70.93       70.90       70.86       70.81       70.76    
        70.71       70.65       70.58       70.51       70.42       70.32       70.21       70.10       70.13       70.15    
        70.16       70.16       70.15       70.14       70.12       70.10       70.08       70.05       70.03       70.00    
  21    72.87       72.86       72.84       72.81       72.77       72.73       72.67       72.60       72.52       72.42    
        72.32       72.20       72.06       71.91       71.74       71.55       71.35       71.14       70.98       70.96    
        70.98       70.99       71.00       70.99       70.97       70.95       70.91       70.87       70.83       70.77    
        70.72       70.65       70.59       70.51       70.42       70.31       70.15       69.85       70.06       70.13    
        70.16       70.16       70.15       70.14       70.12       70.10       70.08       70.05       70.03       70.00    
  22    72.89       72.88       72.86       72.83       72.79       72.74       72.68       72.61       72.54       72.44    
        72.34       72.23       72.10       71.96       71.80       71.63       71.46       71.31       71.19       71.12    
        71.09       71.07       71.06       71.04       71.01       70.98       70.94       70.89       70.84       70.79    
        70.73       70.67       70.60       70.52       70.44       70.34       70.22       70.11       70.14       70.16    
        70.17       70.17       70.16       70.15       70.13       70.10       70.08       70.05       70.03       70.00    
  23    72.90       72.89       72.87       72.84       72.81       72.76       72.70       72.64       72.56       72.47    
        72.37       72.26       72.14       72.01       71.87       71.71       71.57       71.44       71.33       71.25    
        71.20       71.16       71.12       71.09       71.05       71.01       70.96       70.92       70.87       70.81    
        70.75       70.69       70.62       70.55       70.47       70.39       70.30       70.23       70.21       70.21    
        70.20       70.19       70.17       70.15       70.13       70.11       70.08       70.06       70.03       70.00    
  24    72.92       72.91       72.89       72.86       72.83       72.78       72.72       72.66       72.58       72.50    
        72.40       72.30       72.18       72.06       71.93       71.79       71.66       71.54       71.44       71.35    
        71.29       71.23       71.18       71.14       71.09       71.05       71.00       70.94       70.89       70.83    
        70.77       70.71       70.65       70.58       70.50       70.43       70.37       70.31       70.27       70.25    
        70.23       70.21       70.19       70.17       70.14       70.11       70.09       70.06       70.03       70.00    
  25    72.93       72.93       72.91       72.88       72.84       72.80       72.75       72.68       72.61       72.53    
        72.44       72.34       72.23       72.11       71.99       71.86       71.74       71.63       71.53       71.44    
        71.37       71.30       71.25       71.19       71.14       71.08       71.03       70.98       70.92       70.86    
        70.80       70.74       70.67       70.61       70.54       70.48       70.42       70.36       70.32       70.29    
        70.26       70.23       70.21       70.18       70.15       70.12       70.09       70.06       70.03       70.00    
  26    72.95       72.94       72.93       72.90       72.87       72.82       72.77       72.71       72.64       72.56    
        72.47       72.38       72.27       72.16       72.05       71.92       71.81       71.70       71.60       71.52    
        71.44       71.37       71.30       71.24       71.18       71.12       71.07       71.01       70.95       70.89    
        70.83       70.77       70.70       70.64       70.58       70.52       70.46       70.41       70.36       70.32    
        70.29       70.26       70.23       70.19       70.16       70.13       70.10       70.07       70.03       70.00    
  27    72.97       72.96       72.95       72.92       72.89       72.84       72.79       72.73       72.66       72.59    
        72.50       72.41       72.31       72.21       72.10       71.98       71.87       71.77       71.67       71.58    
        71.50       71.43       71.36       71.29       71.23       71.16       71.10       71.04       70.98       70.92    
        70.86       70.79       70.73       70.67       70.61       70.55       70.50       70.44       70.40       70.35    
        70.32       70.28       70.24       70.21       70.17       70.14       70.10       70.07       70.04       70.00    
  28    72.99       72.98       72.96       72.94       72.91       72.87       72.82       72.76       72.69       72.62    
        72.54       72.45       72.35       72.25       72.15       72.03       71.93       71.82       71.73       71.64    
        71.56       71.48       71.40       71.33       71.27       71.20       71.14       71.07       71.01       70.95    
        70.89       70.82       70.76       70.70       70.64       70.58       70.53       70.48       70.43       70.38    
        70.34       70.30       70.26       70.22       70.19       70.15       70.11       70.07       70.04       70.00    
  29    73.01       73.00       72.98       72.96       72.93       72.89       72.84       72.78       72.72       72.65    
        72.57       72.48       72.39       72.29       72.19       72.08       71.98       71.88       71.78       71.69    
        71.61       71.53       71.45       71.38       71.31       71.24       71.17       71.11       71.04       70.98    
        70.92       70.85       70.79       70.73       70.67       70.61       70.56       70.50       70.45       70.41    
        70.36       70.32       70.28       70.24       70.20       70.16       70.12       70.08       70.04       70.00    
  30    73.03       73.02       73.00       72.98       72.95       72.91       72.86       72.81       72.75       72.68    
        72.60       72.52       72.43       72.33       72.23       72.12       72.02       71.92       71.83       71.74    
        71.65       71.57       71.49       71.42       71.34       71.27       71.21       71.14       71.07       71.01    
        70.94       70.88       70.82       70.76       70.70       70.64       70.58       70.53       70.48       70.43    
        70.38       70.34       70.29       70.25       70.21       70.17       70.12       70.08       70.04       70.00    
  31    73.05       73.04       73.02       73.00       72.97       72.93       72.88       72.83       72.77       72.70    
        72.63       72.55       72.46       72.37       72.27       72.16       72.06       71.96       71.87       71.78    
        71.69       71.61       71.53       71.45       71.38       71.31       71.24       71.17       71.10       71.04    
        70.97       70.91       70.84       70.78       70.72       70.66       70.61       70.55       70.50       70.45    
        70.40       70.35       70.31       70.26       70.22       70.17       70.13       70.09       70.04       70.00    
  32    73.06       73.06       73.04       73.02       72.99       72.95       72.91       72.85       72.80       72.73    
        72.66       72.58       72.49       72.40       72.30       72.20       72.10       72.00       71.91       71.82    
        71.73       71.65       71.57       71.49       71.41       71.34       71.27       71.20       71.13       71.06    
        71.00       70.93       70.87       70.81       70.75       70.69       70.63       70.57       70.52       70.47    
        70.42       70.37       70.32       70.27       70.23       70.18       70.14       70.09       70.04       70.00    
  33    73.08       73.07       73.06       73.04       73.01       72.97       72.93       72.88       72.82       72.75    
        72.68       72.60       72.52       72.43       72.33       72.23       72.13       72.04       71.94       71.85    
        71.77       71.68       71.60       71.52       71.44       71.37       71.30       71.23       71.16       71.09    
        71.02       70.96       70.89       70.83       70.77       70.71       70.65       70.59       70.54       70.49    
        70.43       70.38       70.33       70.28       70.24       70.19       70.14       70.09       70.05       70.00    
  34    73.10       73.09       73.08       73.05       73.03       72.99       72.95       72.90       72.84       72.78    
        72.71       72.63       72.55       72.46       72.36       72.26       72.16       72.07       71.97       71.88    
        71.80       71.71       71.63       71.55       71.47       71.40       71.32       71.25       71.18       71.11    
        71.04       70.98       70.91       70.85       70.79       70.73       70.67       70.61       70.56       70.50    
        70.45       70.40       70.34       70.29       70.24       70.19       70.15       70.10       70.05       70.00    
  35    73.11       73.11       73.09       73.07       73.04       73.01       72.96       72.91       72.86       72.80    
        72.73       72.65       72.57       72.48       72.39       72.29       72.19       72.10       72.00       71.91    
        71.83       71.74       71.66       71.58       71.50       71.42       71.35       71.28       71.20       71.13    
        71.07       71.00       70.93       70.87       70.81       70.75       70.69       70.63       70.57       70.52    
        70.46       70.41       70.35       70.30       70.25       70.20       70.15       70.10       70.05       70.00    
  36    73.13       73.12       73.11       73.09       73.06       73.02       72.98       72.93       72.88       72.82    
        72.75       72.67       72.59       72.51       72.41       72.31       72.22       72.12       72.03       71.94    
        71.85       71.77       71.68       71.60       71.52       71.45       71.37       71.30       71.23       71.16    
        71.09       71.02       70.95       70.89       70.83       70.76       70.70       70.64       70.59       70.53    
        70.47       70.42       70.36       70.31       70.26       70.21       70.15       70.10       70.05       70.00    
  37    73.14       73.13       73.12       73.10       73.07       73.04       73.00       72.95       72.89       72.83    
        72.77       72.69       72.61       72.53       72.43       72.33       72.24       72.14       72.05       71.96    
        71.88       71.79       71.71       71.63       71.55       71.47       71.39       71.32       71.25       71.18    
        71.11       71.04       70.97       70.91       70.84       70.78       70.72       70.66       70.60       70.54    
        70.48       70.43       70.37       70.32       70.26       70.21       70.16       70.10       70.05       70.00    
  38    73.15       73.15       73.13       73.11       73.08       73.05       73.01       72.96       72.91       72.85    
        72.78       72.71       72.63       72.54       72.45       72.35       72.26       72.17       72.07       71.98    
        71.90       71.81       71.73       71.65       71.57       71.49       71.41       71.34       71.26       71.19    
        71.12       71.06       70.99       70.92       70.86       70.79       70.73       70.67       70.61       70.55    
        70.49       70.44       70.38       70.32       70.27       70.22       70.16       70.11       70.05       70.00    
  39    73.16       73.16       73.14       73.12       73.09       73.06       73.02       72.97       72.92       72.86    
        72.80       72.72       72.64       72.56       72.47       72.37       72.28       72.18       72.09       72.00    
        71.92       71.83       71.75       71.66       71.59       71.51       71.43       71.36       71.28       71.21    
        71.14       71.07       71.00       70.94       70.87       70.81       70.74       70.68       70.62       70.56    
        70.50       70.45       70.39       70.33       70.28       70.22       70.16       70.11       70.05       70.00    
  40    73.17       73.17       73.15       73.13       73.10       73.07       73.03       72.98       72.93       72.87    
        72.81       72.74       72.66       72.57       72.48       72.39       72.29       72.20       72.11       72.02    
        71.93       71.85       71.76       71.68       71.60       71.52       71.45       71.37       71.30       71.23    
        71.15       71.08       71.02       70.95       70.88       70.82       70.76       70.69       70.63       70.57    
        70.51       70.45       70.39       70.34       70.28       70.22       70.17       70.11       70.06       70.00    
  41    73.19       73.18       73.16       73.14       73.11       73.08       73.04       72.99       72.94       72.88    
        72.82       72.75       72.67       72.59       72.50       72.40       72.31       72.21       72.12       72.04    
        71.95       71.86       71.78       71.70       71.62       71.54       71.46       71.39       71.31       71.24    
        71.17       71.10       71.03       70.96       70.89       70.83       70.77       70.70       70.64       70.58    
        70.52       70.46       70.40       70.34       70.28       70.23       70.17       70.11       70.06       70.00    
  42    73.21       73.19       73.17       73.14       73.12       73.08       73.04       73.00       72.95       72.89    
        72.83       72.76       72.68       72.60       72.51       72.41       72.32       72.23       72.14       72.05    
        71.96       71.88       71.79       71.71       71.63       71.55       71.47       71.40       71.32       71.25    
        71.18       71.11       71.04       70.97       70.90       70.84       70.77       70.71       70.65       70.59    
        70.53       70.47       70.41       70.35       70.29       70.23       70.17       70.11       70.06       70.00    
  43  -1000.0       73.21       73.18       73.15       73.12       73.09       73.05       73.00       72.95       72.89    
        72.83       72.76       72.69       72.61       72.52       72.42       72.33       72.24       72.15       72.06    
        71.97       71.89       71.80       71.72       71.64       71.56       71.49       71.41       71.33       71.26    
        71.19       71.12       71.05       70.98       70.91       70.85       70.78       70.72       70.65       70.59    
        70.53       70.47       70.41       70.35       70.29       70.23       70.17       70.12       70.06       70.00    
  44  -1000.0     -1000.0       73.20       73.16       73.12       73.08       73.05       73.00       72.95       72.90    
        72.83       72.77       72.69       72.61       72.52       72.43       72.34       72.25       72.16       72.07    
        71.98       71.90       71.81       71.73       71.65       71.57       71.50       71.42       71.34       71.27    
        71.20       71.13       71.06       70.99       70.92       70.85       70.79       70.72       70.66       70.60    
        70.54       70.47       70.41       70.35       70.29       70.24       70.18       70.12       70.06       70.00    
  45  -1000.0     -1000.0     -1000.0       73.17       73.13       73.08       73.04       73.00       72.95       72.90    
        72.84       72.77       72.70       72.62       72.53       72.44       72.35       72.25       72.17       72.08    
        71.99       71.91       71.82       71.74       71.66       71.58       71.50       71.43       71.35       71.28    
        71.21       71.13       71.06       71.00       70.93       70.86       70.79       70.73       70.67       70.60    
        70.54       70.48       70.42       70.36       70.30       70.24       70.18       70.12       70.06       70.00    
  46  -1000.0     -1000.0     -1000.0     -1000.0       73.14       73.09       73.04       73.00       72.95       72.89    
        72.84       72.77       72.70       72.62       72.53       72.44       72.35       72.26       72.17       72.08    
        72.00       71.91       71.83       71.75       71.67       71.59       71.51       71.43       71.36       71.28    
        71.21       71.14       71.07       71.00       70.93       70.87       70.80       70.73       70.67       70.61    
        70.54       70.48       70.42       70.36       70.30       70.24       70.18       70.12       70.06       70.00    
  47  -1000.0     -1000.0     -1000.0     -1000.0     -1000.0       73.09       73.05       72.99       72.94       72.89    
        72.83       72.77       72.70       72.62       72.54       72.45       72.35       72.27       72.18       72.09    
        72.00       71.92       71.84       71.75       71.67       71.59       71.52       71.44       71.36       71.29    
        71.22       71.15       71.07       71.01       70.94       70.87       70.80       70.74       70.67       70.61    
        70.55       70.48       70.42       70.36       70.30       70.24       70.18       70.12       70.06       70.00    
  48  -1000.0     -1000.0     -1000.0     -1000.0     -1000.0     -1000.0       73.05       73.00       72.93       72.88    
        72.83       72.77       72.70       72.62       72.54       72.45       72.36       72.27       72.18       72.09    
        72.01       71.92       71.84       71.76       71.68       71.60       71.52       71.44       71.37       71.29    
        71.22       71.15       71.08       71.01       70.94       70.87       70.81       70.74       70.68       70.61    
        70.55       70.49       70.42       70.36       70.30       70.24       70.18       70.12       70.06       70.00    
  49  -1000.0     -1000.0     -1000.0     -1000.0     -1000.0     -1000.0     -1000.0       73.00       72.94       72.87    
        72.82       72.76       72.70       72.62       72.54       72.45       72.36       72.27       72.18       72.10    
        72.01       71.93       71.84       71.76       71.68       71.60       71.52       71.45       71.37       71.30    
        71.22       71.15       71.08       71.01       70.94       70.87       70.81       70.74       70.68       70.61    
        70.55       70.49       70.43       70.36       70.30       70.24       70.18       70.12       70.06       70.00    
  50  -1000.0     -1000.0     -1000.0     -1000.0     -1000.0     -1000.0     -1000.0     -1000.0       72.94       72.88    
        72.81       72.76       72.70       72.62       72.54       72.45       72.36       72.27       72.18       72.10    
        72.01       71.93       71.84       71.76       71.68       71.60       71.52       71.45       71.37       71.30    
        71.22       71.15       71.08       71.01       70.94       70.88       70.81       70.74       70.68       70.61    
        70.55       70.49       70.43       70.36       70.30       70.24       70.18       70.12       70.06       70.00    
1
              HEAD IN LAYER   3 AT END OF TIME STEP   1 IN STRESS PERIOD    1
  ---------------------------------------------------------------------------

            1           2           3           4           5           6           7           8           9          10
           11          12          13          14          15          16          17          18          19          20
           21          22          23          24          25          26          27          28          29          30
           31          32          33          34          35          36          37          38          39          40
           41          42          43          44          45          46          47          48          49          50
 ........................................................................................................................
   1  -1000.0     -1000.0     -1000.0     -1000.0     -1000.0     -1000.0     -1000.0     -1000.0     -1000.0     -1000.0    
        72.34       72.28       72.22       72.14       72.06       71.96       71.88       71.79       71.70       71.62    
        71.54       71.46       71.39       71.32       71.25       71.18       71.11       71.05       70.99       70.93    
        70.87       70.82       70.76       70.71       70.66       70.61       70.56       70.51       70.47       70.42    
        70.37       70.33       70.29       70.25       70.20       70.16       70.12       70.08       70.04       70.00    
   2  -1000.0     -1000.0     -1000.0     -1000.0     -1000.0     -1000.0     -1000.0     -1000.0     -1000.0       72.40    
        72.35       72.29       72.22       72.14       72.05       71.96       71.87       71.79       71.70       71.62    
        71.54       71.46       71.39       71.31       71.24       71.18       71.11       71.05       70.99       70.93    
        70.87       70.82       70.76       70.71       70.66       70.61       70.56       70.51       70.46       70.42    
        70.37       70.33       70.29       70.24       70.20       70.16       70.12       70.08       70.04       70.00    
   3  -1000.0     -1000.0     -1000.0     -1000.0     -1000.0     -1000.0     -1000.0     -1000.0       72.47       72.41    
        72.35       72.29       72.22       72.14       72.05       71.96       71.87       71.78       71.70       71.61    
        71.53       71.45       71.38       71.31       71.24       71.17       71.11       71.04       70.98       70.93    
        70.87       70.81       70.76       70.71       70.65       70.60       70.56       70.51       70.46       70.42    
        70.37       70.33       70.29       70.24       70.20       70.16       70.12       70.08       70.04       70.00    
   4  -1000.0     -1000.0     -1000.0     -1000.0     -1000.0     -1000.0     -1000.0       72.53       72.48       72.42    
        72.36       72.29       72.22       72.14       72.05       71.95       71.86       71.77       71.69       71.60    
        71.52       71.45       71.37       71.30       71.23       71.16       71.10       71.04       70.98       70.92    
        70.86       70.81       70.75       70.70       70.65       70.60       70.55       70.51       70.46       70.41    
        70.37       70.33       70.28       70.24       70.20       70.16       70.12       70.08       70.04       70.00    
   5  -1000.0     -1000.0     -1000.0     -1000.0     -1000.0     -1000.0       72.59       72.54       72.49       72.43    
        72.36       72.29       72.21       72.13       72.04       71.95       71.85       71.76       71.68       71.59    
        71.51       71.44       71.36       71.29       71.22       71.16       71.09       71.03       70.97       70.91    
        70.86       70.80       70.75       70.70       70.65       70.60       70.55       70.50       70.45       70.41    
[...]
        70.20       70.19       70.17       70.15       70.13       70.11       70.08       70.06       70.03       70.00    
  24    72.92       72.91       72.89       72.86       72.83       72.78       72.72       72.66       72.58       72.50    
        72.40       72.30       72.18       72.06       71.93       71.79       71.66       71.54       71.44       71.35    
        71.29       71.23       71.18       71.14       71.09       71.05       71.00       70.94       70.89       70.83    
        70.77       70.71       70.65       70.58       70.50       70.43       70.37       70.31       70.27       70.25    
        70.23       70.21       70.19       70.17       70.14       70.11       70.09       70.06       70.03       70.00    
  25    72.93       72.93       72.91       72.88       72.84       72.80       72.75       72.68       72.61       72.53    
        72.44       72.34       72.23       72.11       71.99       71.86       71.74       71.63       71.53       71.44    
        71.37       71.30       71.25       71.19       71.14       71.08       71.03       70.98       70.92       70.86    
        70.80       70.74       70.67       70.61       70.54       70.48       70.42       70.36       70.32       70.29    
        70.26       70.23       70.21       70.18       70.15       70.12       70.09       70.06       70.03       70.00    
  26    72.95       72.94       72.93       72.90       72.87       72.82       72.77       72.71       72.64       72.56    
        72.47       72.38       72.27       72.16       72.05       71.92       71.81       71.70       71.60       71.52    
        71.44       71.37       71.30       71.24       71.18       71.12       71.07       71.01       70.95       70.89    
        70.83       70.77       70.70       70.64       70.58       70.52       70.46       70.41       70.36       70.32    
        70.29       70.26       70.23       70.19       70.16       70.13       70.10       70.07       70.03       70.00    
  27    72.97       72.96       72.95       72.92       72.89       72.84       72.79       72.73       72.66       72.59    
        72.50       72.41       72.31       72.21       72.10       71.98       71.87       71.77       71.67       71.58    
        71.50       71.43       71.36       71.29       71.23       71.16       71.10       71.04       70.98       70.92    
        70.86       70.79       70.73       70.67       70.61       70.55       70.50       70.44       70.40       70.35    
        70.32       70.28       70.24       70.21       70.17       70.14       70.10       70.07       70.04       70.00    
  28    72.99       72.98       72.96       72.94       72.91       72.87       72.82       72.76       72.69       72.62    
        72.54       72.45       72.35       72.25       72.15       72.03       71.93       71.82       71.73       71.64    
        71.56       71.48       71.40       71.33       71.27       71.20       71.14       71.07       71.01       70.95    
        70.89       70.82       70.76       70.70       70.64       70.58       70.53       70.48       70.43       70.38    
        70.34       70.30       70.26       70.22       70.19       70.15       70.11       70.07       70.04       70.00    
  29    73.01       73.00       72.98       72.96       72.93       72.89       72.84       72.78       72.72       72.65    
        72.57       72.48       72.39       72.29       72.19       72.08       71.98       71.88       71.78       71.69    
        71.61       71.53       71.45       71.38       71.31       71.24       71.17       71.11       71.04       70.98    
        70.92       70.85       70.79       70.73       70.67       70.61       70.56       70.50       70.45       70.41    
        70.36       70.32       70.28       70.24       70.20       70.16       70.12       70.08       70.04       70.00    
  30    73.03       73.02       73.00       72.98       72.95       72.91       72.86       72.81       72.75       72.68    
        72.60       72.52       72.43       72.33       72.23       72.12       72.02       71.92       71.83       71.74    
        71.65       71.57       71.49       71.42       71.34       71.27       71.21       71.14       71.07       71.01    
        70.94       70.88       70.82       70.76       70.70       70.64       70.58       70.53       70.48       70.43    
        70.38       70.34       70.29       70.25       70.21       70.17       70.12       70.08       70.04       70.00    
  31    73.05       73.04       73.02       73.00       72.97       72.93       72.88       72.83       72.77       72.70    
        72.63       72.55       72.46       72.37       72.27       72.16       72.06       71.96       71.87       71.78    
        71.69       71.61       71.53       71.45       71.38       71.31       71.24       71.17       71.10       71.04    
        70.97       70.91       70.84       70.78       70.72       70.66       70.61       70.55       70.50       70.45    
        70.40       70.35       70.31       70.26       70.22       70.17       70.13       70.09       70.04       70.00    
  32    73.06       73.06       73.04       73.02       72.99       72.95       72.91       72.85       72.80       72.73    
        72.66       72.58       72.49       72.40       72.30       72.20       72.10       72.00       71.91       71.82    
        71.73       71.65       71.57       71.49       71.41       71.34       71.27       71.20       71.13       71.06    
        71.00       70.93       70.87       70.81       70.75       70.69       70.63       70.57       70.52       70.47    
        70.42       70.37       70.32       70.27       70.23       70.18       70.14       70.09       70.04       70.00    
  33    73.08       73.07       73.06       73.04       73.01       72.97       72.93       72.88       72.82       72.75    
        72.68       72.60       72.52       72.43       72.33       72.23       72.13       72.04       71.94       71.85    
        71.77       71.68       71.60       71.52       71.44       71.37       71.30       71.23       71.16       71.09    
        71.02       70.96       70.89       70.83       70.77       70.71       70.65       70.59       70.54       70.49    
        70.43       70.38       70.33       70.28       70.24       70.19       70.14       70.09       70.05       70.00    
  34    73.10       73.09       73.08       73.05       73.03       72.99       72.95       72.90       72.84       72.78    
        72.71       72.63       72.55       72.46       72.36       72.26       72.16       72.07       71.97       71.88    
        71.80       71.71       71.63       71.55       71.47       71.40       71.32       71.25       71.18       71.11    
        71.04       70.98       70.91       70.85       70.79       70.73       70.67       70.61       70.56       70.50    
        70.45       70.40       70.34       70.29       70.24       70.19       70.15       70.10       70.05       70.00    
  35    73.11       73.11       73.09       73.07       73.04       73.01       72.96       72.91       72.86       72.80    
        72.73       72.65       72.57       72.48       72.39       72.29       72.19       72.10       72.00       71.91    
        71.83       71.74       71.66       71.58       71.50       71.42       71.35       71.28       71.20       71.13    
        71.07       71.00       70.93       70.87       70.81       70.75       70.69       70.63       70.57       70.52    
        70.46       70.41       70.35       70.30       70.25       70.20       70.15       70.10       70.05       70.00    
  36    73.13       73.12       73.11       73.09       73.06       73.02       72.98       72.93       72.88       72.82    
        72.75       72.67       72.59       72.51       72.41       72.31       72.22       72.12       72.03       71.94    
        71.85       71.77       71.68       71.60       71.52       71.45       71.37       71.30       71.23       71.16    
        71.09       71.02       70.95       70.89       70.83       70.76       70.70       70.64       70.59       70.53    
        70.47       70.42       70.36       70.31       70.26       70.21       70.15       70.10       70.05       70.00    
  37    73.14       73.13       73.12       73.10       73.07       73.04       73.00       72.95       72.89       72.83    
        72.77       72.69       72.61       72.53       72.43       72.33       72.24       72.14       72.05       71.96    
        71.88       71.79       71.71       71.63       71.55       71.47       71.39       71.32       71.25       71.18    
        71.11       71.04       70.97       70.91       70.84       70.78       70.72       70.66       70.60       70.54    
        70.48       70.43       70.37       70.32       70.26       70.21       70.16       70.10       70.05       70.00    
  38    73.15       73.15       73.13       73.11       73.08       73.05       73.01       72.96       72.91       72.85    
        72.78       72.71       72.63       72.54       72.45       72.35       72.26       72.17       72.07       71.98    
        71.90       71.81       71.73       71.65       71.57       71.49       71.41       71.34       71.26       71.19    
        71.12       71.06       70.99       70.92       70.86       70.79       70.73       70.67       70.61       70.55    
        70.49       70.44       70.38       70.32       70.27       70.22       70.16       70.11       70.05       70.00    
  39    73.16       73.16       73.14       73.12       73.09       73.06       73.02       72.97       72.92       72.86    
        72.80       72.72       72.64       72.56       72.47       72.37       72.28       72.18       72.09       72.00    
        71.92       71.83       71.75       71.66       71.59       71.51       71.43       71.36       71.28       71.21    
        71.14       71.07       71.00       70.94       70.87       70.81       70.74       70.68       70.62       70.56    
        70.50       70.45       70.39       70.33       70.28       70.22       70.16       70.11       70.05       70.00    
  40    73.17       73.17       73.15       73.13       73.10       73.07       73.03       72.98       72.93       72.87    
        72.81       72.74       72.66       72.57       72.48       72.39       72.29       72.20       72.11       72.02    
        71.93       71.85       71.76       71.68       71.60       71.52       71.45       71.37       71.30       71.23    
        71.15       71.08       71.02       70.95       70.88       70.82       70.76       70.69       70.63       70.57    
        70.51       70.45       70.39       70.34       70.28       70.22       70.17       70.11       70.06       70.00    
  41  -1000.0       73.18       73.16       73.14       73.11       73.08       73.04       72.99       72.94       72.88    
        72.82       72.75       72.67       72.59       72.50       72.40       72.31       72.21       72.12       72.04    
        71.95       71.86       71.78       71.70       71.62       71.54       71.46       71.39       71.31       71.24    
        71.17       71.10       71.03       70.96       70.89       70.83       70.77       70.70       70.64       70.58    
        70.52       70.46       70.40       70.34       70.28       70.23       70.17       70.11       70.06       70.00    
  42  -1000.0     -1000.0       73.17       73.14       73.12       73.08       73.04       73.00       72.95       72.89    
        72.82       72.76       72.68       72.60       72.51       72.41       72.32       72.23       72.14       72.05    
        71.96       71.88       71.79       71.71       71.63       71.55       71.47       71.40       71.32       71.25    
        71.18       71.11       71.04       70.97       70.90       70.84       70.77       70.71       70.65       70.59    
        70.53       70.47       70.41       70.35       70.29       70.23       70.17       70.11       70.06       70.00    
  43  -1000.0     -1000.0     -1000.0       73.15       73.12       73.09       73.05       73.00       72.95       72.89    
        72.83       72.76       72.69       72.61       72.52       72.42       72.33       72.24       72.15       72.06    
        71.97       71.89       71.80       71.72       71.64       71.56       71.49       71.41       71.33       71.26    
        71.19       71.12       71.05       70.98       70.91       70.85       70.78       70.72       70.65       70.59    
        70.53       70.47       70.41       70.35       70.29       70.23       70.17       70.12       70.06       70.00    
  44  -1000.0     -1000.0     -1000.0     -1000.0       73.12       73.08       73.05       73.00       72.95       72.90    
        72.83       72.77       72.69       72.61       72.52       72.43       72.34       72.25       72.16       72.07    
        71.98       71.90       71.81       71.73       71.65       71.57       71.50       71.42       71.34       71.27    
        71.20       71.13       71.06       70.99       70.92       70.85       70.79       70.72       70.66       70.60    
        70.54       70.47       70.41       70.35       70.29       70.24       70.18       70.12       70.06       70.00    
  45  -1000.0     -1000.0     -1000.0     -1000.0     -1000.0       73.08       73.04       73.00       72.95       72.90    
        72.84       72.77       72.70       72.62       72.53       72.44       72.35       72.25       72.17       72.08    
        71.99       71.91       71.82       71.74       71.66       71.58       71.50       71.43       71.35       71.28    
        71.21       71.13       71.06       71.00       70.93       70.86       70.79       70.73       70.67       70.60    
        70.54       70.48       70.42       70.36       70.30       70.24       70.18       70.12       70.06       70.00    
  46  -1000.0     -1000.0     -1000.0     -1000.0     -1000.0     -1000.0       73.04       73.00       72.95       72.89    
        72.84       72.77       72.70       72.62       72.53       72.44       72.35       72.26       72.17       72.08    
        72.00       71.91       71.83       71.75       71.67       71.59       71.51       71.43       71.36       71.28    
        71.21       71.14       71.07       71.00       70.93       70.87       70.80       70.73       70.67       70.61    
        70.54       70.48       70.42       70.36       70.30       70.24       70.18       70.12       70.06       70.00    
  47  -1000.0     -1000.0     -1000.0     -1000.0     -1000.0     -1000.0     -1000.0       72.99       72.94       72.89    
        72.83       72.77       72.70       72.62       72.54       72.45       72.35       72.27       72.18       72.09    
        72.00       71.92       71.84       71.75       71.67       71.59       71.52       71.44       71.36       71.29    
        71.22       71.15       71.07       71.01       70.94       70.87       70.80       70.74       70.67       70.61    
        70.55       70.48       70.42       70.36       70.30       70.24       70.18       70.12       70.06       70.00    
  48  -1000.0     -1000.0     -1000.0     -1000.0     -1000.0     -1000.0     -1000.0     -1000.0       72.93       72.88    
        72.83       72.77       72.70       72.62       72.54       72.45       72.36       72.27       72.18       72.09    
        72.01       71.92       71.84       71.76       71.68       71.60       71.52       71.44       71.37       71.29    
        71.22       71.15       71.08       71.01       70.94       70.87       70.81       70.74       70.68       70.61    
        70.55       70.49       70.42       70.36       70.30       70.24       70.18       70.12       70.06       70.00    
  49  -1000.0     -1000.0     -1000.0     -1000.0     -1000.0     -1000.0     -1000.0     -1000.0     -1000.0       72.87    
        72.82       72.76       72.70       72.62       72.54       72.45       72.36       72.27       72.18       72.10    
        72.01       71.93       71.84       71.76       71.68       71.60       71.52       71.45       71.37       71.30    
        71.22       71.15       71.08       71.01       70.94       70.87       70.81       70.74       70.68       70.61    
        70.55       70.49       70.43       70.36       70.30       70.24       70.18       70.12       70.06       70.00    
  50  -1000.0     -1000.0     -1000.0     -1000.0     -1000.0     -1000.0     -1000.0     -1000.0     -1000.0     -1000.0    
        72.81       72.76       72.70       72.62       72.54       72.45       72.36       72.27       72.18       72.10    
        72.01       71.93       71.84       71.76       71.68       71.60       71.52       71.45       71.37       71.30    
        71.22       71.15       71.08       71.01       70.94       70.88       70.81       70.74       70.68       70.61    
        70.55       70.49       70.43       70.36       70.30       70.24       70.18       70.12       70.06       70.00    

 HEAD WILL BE SAVED ON UNIT   51 AT END OF TIME STEP    1, STRESS PERIOD    1

 DRAWDOWN WILL BE SAVED ON UNIT   52 AT END OF TIME STEP    1, STRESS PERIOD    1
1
  VOLUMETRIC BUDGET FOR ENTIRE MODEL AT END OF TIME STEP    1, STRESS PERIOD   1
  ------------------------------------------------------------------------------

     CUMULATIVE VOLUMES      L**3       RATES FOR THIS TIME STEP      L**3/T
     ------------------                 ------------------------

           IN:                                      IN:
           ---                                      ---
             STORAGE =           0.0000               STORAGE =           0.0000
       CONSTANT HEAD =           0.0000         CONSTANT HEAD =           0.0000
               WELLS =           0.0000                 WELLS =           0.0000
                  ET =           0.0000                    ET =           0.0000
            RECHARGE =     1911600.0000              RECHARGE =       10620.0000
      STREAM LEAKAGE =        1064.1458        STREAM LEAKAGE =           5.9119

            TOTAL IN =     1912664.1250              TOTAL IN =       10625.9121

          OUT:                                     OUT:
          ----                                     ----
             STORAGE =           0.0000               STORAGE =           0.0000
       CONSTANT HEAD =      661128.2500         CONSTANT HEAD =        3672.9346
               WELLS =     1251536.0000                 WELLS =        6952.9775
                  ET =           0.0000                    ET =           0.0000
            RECHARGE =           0.0000              RECHARGE =           0.0000
      STREAM LEAKAGE =           0.0000        STREAM LEAKAGE =           0.0000

           TOTAL OUT =     1912664.2500             TOTAL OUT =       10625.9121

            IN - OUT =          -0.1250              IN - OUT =           0.0000

 PERCENT DISCREPANCY =          -0.00     PERCENT DISCREPANCY =           0.00






         TIME SUMMARY AT END OF TIME STEP    1 IN STRESS PERIOD    1
                    SECONDS     MINUTES      HOURS       DAYS        YEARS
                    -----------------------------------------------------------
   TIME STEP LENGTH 1.55520E+07 2.59200E+05  4320.0      180.00     0.49281    
 STRESS PERIOD TIME 1.55520E+07 2.59200E+05  4320.0      180.00     0.49281    
         TOTAL TIME 1.55520E+07 2.59200E+05  4320.0      180.00     0.49281    
1

 Run end date and time (yyyy/mm/dd hh:mm:ss): 2023/06/22 19:18:24
 Elapsed run time:  0.145 Seconds

