                                  MODFLOW-2005     
      U.S. GEOLOGICAL SURVEY MODULAR FINITE-DIFFERENCE GROUND-WATER FLOW MODEL
                            VERSION 1.12.00 2/3/2017

 LIST FILE: BASE.list
                         UNIT    2

 OPENING BASE.dis
 FILE TYPE:DIS   UNIT   11   STATUS:OLD    
 FORMAT:FORMATTED              ACCESS:SEQUENTIAL          

 OPENING BASE.bas
 FILE TYPE:BAS6   UNIT   13   STATUS:OLD    
 FORMAT:FORMATTED              ACCESS:SEQUENTIAL          

 OPENING BASE.lpf
 FILE TYPE:LPF   UNIT   15   STATUS:OLD    
 FORMAT:FORMATTED              ACCESS:SEQUENTIAL          

 OPENING BASE.oc
 FILE TYPE:OC   UNIT   14   STATUS:OLD    
 FORMAT:FORMATTED              ACCESS:SEQUENTIAL          

 OPENING BASE.pcg
 FILE TYPE:PCG   UNIT   27   STATUS:OLD    
 FORMAT:FORMATTED              ACCESS:SEQUENTIAL          

 OPENING BASE.rch
 FILE TYPE:RCH   UNIT   19   STATUS:OLD    
 FORMAT:FORMATTED              ACCESS:SEQUENTIAL          

 OPENING BASE.evt
 FILE TYPE:EVT   UNIT   22   STATUS:OLD    
 FORMAT:FORMATTED              ACCESS:SEQUENTIAL          

 OPENING BASE.wel
 FILE TYPE:WEL   UNIT   20   STATUS:OLD    
 FORMAT:FORMATTED              ACCESS:SEQUENTIAL          

 OPENING BASE.str
 FILE TYPE:STR   UNIT  118   STATUS:OLD    
 FORMAT:FORMATTED              ACCESS:SEQUENTIAL          

 OPENING BASE.cbc
 FILE TYPE:DATA(BINARY)   UNIT   53   STATUS:REPLACE
 FORMAT:BINARY                 ACCESS:SEQUENTIAL          

 OPENING BASE.hds
 FILE TYPE:DATA(BINARY)   UNIT   51   STATUS:REPLACE
 FORMAT:BINARY                 ACCESS:SEQUENTIAL          

 OPENING BASE.ddn
 FILE TYPE:DATA(BINARY)   UNIT   52   STATUS:REPLACE
 FORMAT:BINARY                 ACCESS:SEQUENTIAL          

 BAS -- BASIC PACKAGE, VERSION 7, 5/2/2005 INPUT READ FROM UNIT   13
 
 MODFLOW was compiled using mixed precision
 Precision of REAL variables:           6
 Precision of DOUBLE PRECISION variables:          15

 DISCRETIZATION INPUT DATA READ FROM UNIT   11
 # DIS package for  MODFLOW-2005, generated by Flopy.
    3 LAYERS        50 ROWS        50 COLUMNS
    1 STRESS PERIOD(S) IN SIMULATION
 MODEL TIME UNIT IS DAYS
 MODEL LENGTH UNIT IS METERS
  Confining bed flag for each layer:
   0   0   0

                     DELR =   1000.00    

                     DELC =   1000.00    



           TOP ELEVATION OF LAYER 1
 READING ON UNIT   11 WITH FORMAT: (50E15.6)           



             MODEL LAYER BOTTOM EL. FOR LAYER   1
 READING ON UNIT   11 WITH FORMAT: (50E15.6)           



             MODEL LAYER BOTTOM EL. FOR LAYER   2
 READING ON UNIT   11 WITH FORMAT: (50E15.6)           



             MODEL LAYER BOTTOM EL. FOR LAYER   3
 READING ON UNIT   11 WITH FORMAT: (50E15.6)           


 STRESS PERIOD     LENGTH       TIME STEPS     MULTIPLIER FOR DELT    SS FLAG
 ----------------------------------------------------------------------------
        1         180.0000          1                    1.000         SS

 STEADY-STATE SIMULATION



 
 # BAS6 package for  MODFLOW-2005, generated by Flopy.                           
 THE FREE FORMAT OPTION HAS BEEN SELECTED



                     BOUNDARY ARRAY FOR LAYER   1
 READING ON UNIT   13 WITH FORMAT: (50I10)             



                     BOUNDARY ARRAY FOR LAYER   2
 READING ON UNIT   13 WITH FORMAT: (50I10)             



                     BOUNDARY ARRAY FOR LAYER   3
 READING ON UNIT   13 WITH FORMAT: (50I10)             

 AQUIFER HEAD WILL BE SET TO  -999.99     AT ALL NO-FLOW NODES (IBOUND=0).



                       INITIAL HEAD FOR LAYER   1
 READING ON UNIT   13 WITH FORMAT: (50E15.6)           



                       INITIAL HEAD FOR LAYER   2
 READING ON UNIT   13 WITH FORMAT: (50E15.6)           



                       INITIAL HEAD FOR LAYER   3
 READING ON UNIT   13 WITH FORMAT: (50E15.6)           
 # OC package for  MODFLOW-2005, generated by Flopy.

 OUTPUT CONTROL IS SPECIFIED ONLY AT TIME STEPS FOR WHICH OUTPUT IS DESIRED
 COMPACT CELL-BY-CELL BUDGET FILES WILL BE WRITTEN
 AUXILIARY DATA WILL BE SAVED IN CELL-BY-CELL BUDGET FILES
 HEAD PRINT FORMAT CODE IS   0    DRAWDOWN PRINT FORMAT CODE IS   0
 HEADS WILL BE SAVED ON UNIT   51    DRAWDOWNS WILL BE SAVED ON UNIT   52

 LPF -- LAYER-PROPERTY FLOW PACKAGE, VERSION 7, 5/2/2005
         INPUT READ FROM UNIT   15
 # LPF package for  MODFLOW-2005, generated by Flopy.
 CELL-BY-CELL FLOWS WILL BE SAVED ON UNIT   53
 HEAD AT CELLS THAT CONVERT TO DRY= -1.00000E+30
 No named parameters

   LAYER FLAGS:
 LAYER       LAYTYP        LAYAVG         CHANI        LAYVKA        LAYWET
 ---------------------------------------------------------------------------
    1             1             0     0.000E+00             0             0
    2             1             0     0.000E+00             0             0
    3             1             0     0.000E+00             0             0

   INTERPRETATION OF LAYER FLAGS:
                        INTERBLOCK     HORIZONTAL    DATA IN
         LAYER TYPE   TRANSMISSIVITY   ANISOTROPY   ARRAY VKA   WETTABILITY
 LAYER      (LAYTYP)      (LAYAVG)       (CHANI)      (LAYVKA)      (LAYWET)
 ---------------------------------------------------------------------------
    1   CONVERTIBLE      HARMONIC      VARIABLE    VERTICAL K  NON-WETTABLE
    2   CONVERTIBLE      HARMONIC      VARIABLE    VERTICAL K  NON-WETTABLE
    3   CONVERTIBLE      HARMONIC      VARIABLE    VERTICAL K  NON-WETTABLE

 WETTING CAPABILITY IS NOT ACTIVE IN ANY LAYER

    HYD. COND. ALONG ROWS =   5.00000     FOR LAYER   1

   HORIZ. ANI. (COL./ROW) =   1.00000     FOR LAYER   1



                VERTICAL HYD. COND. FOR LAYER   1
 READING ON UNIT   15 WITH FORMAT: (50E15.6)           

    HYD. COND. ALONG ROWS =   5.00000     FOR LAYER   2

   HORIZ. ANI. (COL./ROW) =   1.00000     FOR LAYER   2



                VERTICAL HYD. COND. FOR LAYER   2
 READING ON UNIT   15 WITH FORMAT: (50E15.6)           

    HYD. COND. ALONG ROWS =   5.00000     FOR LAYER   3

   HORIZ. ANI. (COL./ROW) =   1.00000     FOR LAYER   3



                VERTICAL HYD. COND. FOR LAYER   3
 READING ON UNIT   15 WITH FORMAT: (50E15.6)           

 WEL -- WELL PACKAGE, VERSION 7, 5/2/2005 INPUT READ FROM UNIT   20
 # WEL package for  MODFLOW-2005, generated by Flopy.
 No named parameters
 MAXIMUM OF      2 ACTIVE WELLS AT ONE TIME


     0 Well parameters

 EVT -- EVAPOTRANSPIRATION PACKAGE, VERSION 7, 5/2/2005
         INPUT READ FROM UNIT   22
 # EVT package for  MODFLOW-2005, generated by Flopy.
 No named parameters
 OPTION 3 -- EVAPOTRANSPIRATION FROM HIGHEST ACTIVE NODE IN EACH VERTICAL COLUMN
 CELL-BY-CELL FLOWS WILL BE SAVED ON UNIT   53


     0 Evapotranspiration parameters

 RCH -- RECHARGE PACKAGE, VERSION 7, 5/2/2005 INPUT READ FROM UNIT   19
 # RCH package for  MODFLOW-2005, generated by Flopy.
 No named parameters
 OPTION 3 -- RECHARGE TO HIGHEST ACTIVE NODE IN EACH VERTICAL COLUMN


     0 Recharge parameters

 STR -- STREAM PACKAGE, VERSION 7, 5/2/2005 INPUT READ FROM UNIT  118
 # STR package for  MODFLOW-2005, generated by Flopy.
 No named parameters
 MAXIMUM OF     49 ACTIVE STREAM NODES AT ONE TIME
 NUMBER OF STREAM SEGMENTS IS      3
 NUMBER OF STREAM TRIBUTARIES IS      2
 STREAM STAGES WILL BE CALCULATED USING A CONSTANT OF 86400.0000
 CELL BUDGETS WILL BE SAVED ON UNITS   53 AND   53


     0 Stream parameters

 PCG -- CONJUGATE-GRADIENT SOLUTION PACKAGE, VERSION 7, 5/2/2005
 # PCG package for  MODFLOW-2005, generated by Flopy.
 MAXIMUM OF     50 CALLS OF SOLUTION ROUTINE
 MAXIMUM OF     30 INTERNAL ITERATIONS PER CALL TO SOLUTION ROUTINE
 MATRIX PRECONDITIONING TYPE :    1



                                    SOLUTION BY THE CONJUGATE-GRADIENT METHOD
                                   -------------------------------------------
                    MAXIMUM NUMBER OF CALLS TO PCG ROUTINE =       50
                        MAXIMUM ITERATIONS PER CALL TO PCG =       30
                               MATRIX PRECONDITIONING TYPE =        1
        RELAXATION FACTOR (ONLY USED WITH PRECOND. TYPE 1) =    0.10000E+01
 PARAMETER OF POLYNOMIAL PRECOND. = 2 (2) OR IS CALCULATED :        0
                         HEAD CHANGE CRITERION FOR CLOSURE =    0.10000E-04
                     RESIDUAL CHANGE CRITERION FOR CLOSURE =    0.10000E-04
            PCG HEAD AND RESIDUAL CHANGE PRINTOUT INTERVAL =      999
     PRINTING FROM SOLVER IS LIMITED(1) OR SUPPRESSED (>1) =        3
                            STEADY-STATE DAMPING PARAMETER =    0.10000E+01
                               TRANSIENT DAMPING PARAMETER =    0.10000E+01
1
                            STRESS PERIOD NO.    1, LENGTH =   180.0000    
                            -----------------------------------------------

                              NUMBER OF TIME STEPS =     1

                               MULTIPLIER FOR DELT =     1.000

                            INITIAL TIME STEP SIZE =   180.0000    

 WELL NO.  LAYER   ROW   COL   STRESS RATE         
 --------------------------------------------------
      1      3     21     38      -1810.    
      2      1     19     19      -5143.    

      2 WELLS



                         ET SURFACE
 READING ON UNIT   22 WITH FORMAT: (50E15.6)           



            EVAPOTRANSPIRATION RATE
 READING ON UNIT   22 WITH FORMAT: (50E15.6)           



                   EXTINCTION DEPTH
 READING ON UNIT   22 WITH FORMAT: (50E15.6)           



                           RECHARGE
 READING ON UNIT   19 WITH FORMAT: (50E15.6)           

     49 STREAM REACHES
 
 SOLVING FOR HEAD 

 OUTPUT CONTROL FOR STRESS PERIOD    1   TIME STEP    1
    SAVE HEAD FOR ALL LAYERS
    SAVE DRAWDOWN FOR ALL LAYERS
    SAVE BUDGET
    PRINT HEAD FOR ALL LAYERS
    PRINT BUDGET
 UBDSV2 SAVING "   CONSTANT HEAD" ON UNIT  53 AT TIME STEP  1, STRESS PERIOD   1
 UBDSV1 SAVING "FLOW RIGHT FACE " ON UNIT  53 AT TIME STEP  1, STRESS PERIOD   1
 UBDSV1 SAVING "FLOW FRONT FACE " ON UNIT  53 AT TIME STEP  1, STRESS PERIOD   1
 UBDSV1 SAVING "FLOW LOWER FACE " ON UNIT  53 AT TIME STEP  1, STRESS PERIOD   1
 UBDSV3 SAVING "              ET" ON UNIT  53 AT TIME STEP  1, STRESS PERIOD   1
 UBDSV4 SAVING "  STREAM LEAKAGE" ON UNIT  53 AT TIME STEP  1, STRESS PERIOD   1
 UBDSV4 SAVING "STREAM FLOW OUT " ON UNIT  53 AT TIME STEP  1, STRESS PERIOD   1
1
              HEAD IN LAYER   1 AT END OF TIME STEP   1 IN STRESS PERIOD    1
  ---------------------------------------------------------------------------

            1           2           3           4           5           6           7           8           9          10
           11          12          13          14          15          16          17          18          19          20
           21          22          23          24          25          26          27          28          29          30
           31          32          33          34          35          36          37          38          39          40
           41          42          43          44          45          46          47          48          49          50
 ........................................................................................................................
   1  -1000.0     -1000.0     -1000.0     -1000.0     -1000.0     -1000.0       82.03       81.88       81.64       81.35    
        81.03       80.78       80.48       80.14       79.76       79.34       78.93       78.53       78.14       77.76    
        77.39       77.04       76.69       76.35       76.02       75.71       75.40       75.10       74.81       74.53    
        74.26       73.99       73.73       73.48       73.23       72.99       72.75       72.52       72.29       72.07    
        71.85       71.64       71.43       71.22       71.01       70.81       70.60       70.40       70.20       70.00    
   2  -1000.0     -1000.0     -1000.0     -1000.0     -1000.0       82.25       82.09       81.89       81.63       81.32    
        81.07       80.80       80.48       80.13       79.75       79.33       78.92       78.52       78.13       77.75    
        77.38       77.02       76.68       76.34       76.01       75.70       75.39       75.09       74.81       74.52    
        74.25       73.99       73.73       73.47       73.22       72.98       72.75       72.51       72.29       72.07    
        71.85       71.63       71.42       71.21       71.01       70.80       70.60       70.40       70.20       70.00    
   3  -1000.0     -1000.0     -1000.0     -1000.0       82.48       82.33       82.13       81.89       81.61       81.37    
        81.10       80.81       80.48       80.13       79.74       79.32       78.90       78.50       78.11       77.73    
        77.36       77.00       76.65       76.31       75.99       75.68       75.37       75.07       74.79       74.51    
        74.24       73.97       73.71       73.46       73.21       72.97       72.73       72.50       72.28       72.06    
        71.84       71.63       71.42       71.21       71.00       70.80       70.60       70.40       70.20       70.00    
   4  -1000.0     -1000.0     -1000.0       82.70       82.55       82.37       82.14       81.88       81.65       81.40    
        81.12       80.81       80.48       80.11       79.72       79.29       78.87       78.47       78.07       77.69    
        77.32       76.96       76.61       76.28       75.96       75.64       75.34       75.05       74.76       74.48    
        74.21       73.95       73.69       73.44       73.19       72.95       72.72       72.49       72.26       72.04    
        71.83       71.61       71.40       71.20       71.00       70.79       70.59       70.40       70.20       70.00    
   5  -1000.0     -1000.0       82.89       82.76       82.59       82.38       82.14       81.92       81.69       81.42    
        81.13       80.81       80.46       80.09       79.68       79.25       78.83       78.42       78.02       77.63    
        77.26       76.91       76.56       76.23       75.91       75.60       75.30       75.01       74.72       74.45    
        74.18       73.92       73.66       73.41       73.17       72.93       72.69       72.47       72.24       72.02    
        71.81       71.60       71.39       71.19       70.99       70.79       70.59       70.39       70.20       70.00    
   6  -1000.0       83.04       82.94       82.79       82.60       82.37       82.18       81.96       81.71       81.43    
        81.13       80.80       80.44       80.05       79.64       79.20       78.77       78.35       77.95       77.57    
        77.20       76.84       76.50       76.17       75.85       75.54       75.25       74.96       74.68       74.41    
        74.14       73.88       73.63       73.38       73.14       72.90       72.66       72.44       72.22       72.00    
        71.79       71.58       71.37       71.17       70.97       70.78       70.58       70.39       70.19       70.00    
   7    83.14       83.07       82.95       82.79       82.59       82.41       82.21       81.98       81.72       81.43    
        81.12       80.78       80.41       80.01       79.58       79.13       78.70       78.27       77.87       77.48    
        77.11       76.76       76.42       76.09       75.78       75.48       75.19       74.90       74.63       74.36    
        74.10       73.84       73.59       73.34       73.10       72.86       72.63       72.40       72.18       71.97    
        71.76       71.55       71.35       71.15       70.96       70.76       70.57       70.38       70.19       70.00    
   8    83.13       83.06       82.95       82.77       82.62       82.44       82.23       81.99       81.72       81.42    
        81.10       80.74       80.36       79.95       79.51       79.05       78.60       78.18       77.77       77.38    
        77.01       76.66       76.32       76.00       75.70       75.40       75.12       74.84       74.57       74.30    
        74.04       73.79       73.54       73.29       73.05       72.82       72.59       72.36       72.15       71.93    
        71.73       71.52       71.32       71.13       70.94       70.75       70.56       70.37       70.19       70.00    
   9    83.11       83.05       82.92       82.80       82.64       82.45       82.24       81.99       81.71       81.41    
        81.07       80.70       80.30       79.88       79.42       78.95       78.49       78.06       77.64       77.25    
        76.88       76.54       76.21       75.90       75.60       75.31       75.04       74.77       74.50       74.24    
        73.98       73.73       73.48       73.24       73.00       72.77       72.54       72.32       72.10       71.89    
        71.69       71.49       71.29       71.10       70.92       70.73       70.55       70.36       70.18       70.00    
  10    83.09       83.02       82.93       82.81       82.65       82.46       82.24       81.99       81.70       81.38    
        81.03       80.64       80.23       79.79       79.32       78.83       78.36       77.91       77.49       77.10    
        76.74       76.40       76.08       75.78       75.49       75.22       74.95       74.69       74.43       74.17    
        73.92       73.67       73.43       73.18       72.95       72.71       72.49       72.27       72.05       71.85    
        71.65       71.45       71.26       71.07       70.89       70.71       70.53       70.35       70.18       70.00    
  11    83.08       83.03       82.94       82.82       82.66       82.47       82.24       81.98       81.68       81.35    
        80.98       80.58       80.15       79.69       79.20       78.69       78.20       77.74       77.31       76.92    
        76.56       76.23       75.93       75.65       75.37       75.11       74.86       74.60       74.35       74.10    
        73.85       73.61       73.36       73.12       72.88       72.65       72.42       72.21       72.00       71.79    
        71.60       71.41       71.22       71.04       70.86       70.69       70.52       70.34       70.17       70.00    
  12    83.08       83.03       82.95       82.83       82.67       82.47       82.24       81.97       81.66       81.32    
        80.93       80.51       80.06       79.57       79.05       78.52       78.00       77.53       77.09       76.70    
        76.35       76.04       75.76       75.50       75.24       75.00       74.76       74.52       74.27       74.03    
        73.79       73.54       73.30       73.05       72.81       72.58       72.35       72.14       71.93       71.73    
        71.54       71.36       71.18       71.00       70.83       70.67       70.50       70.33       70.17       70.00    
  13    83.09       83.04       82.96       82.84       82.68       82.48       82.24       81.96       81.64       81.28    
        80.88       80.44       79.96       79.44       78.89       78.32       77.77       77.27       76.82       76.44    
        76.11       75.82       75.57       75.33       75.11       74.88       74.66       74.43       74.19       73.96    
        73.72       73.47       73.23       72.98       72.74       72.50       72.28       72.06       71.85       71.66    
        71.48       71.30       71.13       70.96       70.80       70.64       70.48       70.32       70.16       70.00    
  14    83.10       83.06       82.98       82.85       82.69       82.48       82.24       81.95       81.62       81.25    
        80.83       80.36       79.85       79.30       78.71       78.09       77.50       76.95       76.49       76.11    
        75.82       75.57       75.36       75.16       74.97       74.77       74.56       74.34       74.12       73.89    
        73.65       73.40       73.15       72.90       72.66       72.42       72.19       71.97       71.77       71.58    
        71.40       71.24       71.08       70.92       70.77       70.61       70.46       70.31       70.15       70.00    
  15    83.12       83.08       82.99       82.87       82.70       82.49       82.24       81.95       81.61       81.22    
        80.78       80.29       79.75       79.16       78.51       77.83       77.16       76.56       76.06       75.71    
        75.47       75.29       75.14       74.99       74.83       74.66       74.47       74.27       74.05       73.82    
        73.58       73.34       73.08       72.82       72.57       72.32       72.08       71.86       71.66       71.48    
        71.32       71.17       71.02       70.88       70.73       70.59       70.44       70.30       70.15       70.00    
  16    83.14       83.10       83.02       82.89       82.72       82.51       82.25       81.95       81.60       81.20    
        80.74       80.23       79.66       79.02       78.31       77.54       76.77       76.04       75.48       75.18    
        75.05       74.98       74.91       74.82       74.71       74.56       74.39       74.20       74.00       73.77    
        73.53       73.28       73.01       72.74       72.47       72.21       71.96       71.73       71.54       71.37    
        71.23       71.09       70.96       70.83       70.70       70.56       70.42       70.28       70.14       70.00    
  17    83.18       83.13       83.05       82.92       82.75       82.54       82.27       81.97       81.61       81.20    
        80.73       80.19       79.59       78.90       78.13       77.25       76.31       75.36       74.61       74.49    
        74.58       74.67       74.70       74.68       74.61       74.49       74.34       74.16       73.96       73.73    
        73.49       73.22       72.95       72.66       72.37       72.08       71.81       71.57       71.39       71.25    
        71.13       71.01       70.90       70.78       70.66       70.54       70.41       70.27       70.14       70.00    
  18    83.21       83.17       83.09       82.96       82.79       82.57       82.31       81.99       81.63       81.21    
        80.73       80.18       79.56       78.84       78.00       77.01       75.85       74.47       73.08       73.59    
        74.10       74.41       74.56       74.59       74.55       74.45       74.31       74.14       73.94       73.71    
        73.46       73.19       72.90       72.59       72.26       71.93       71.62       71.36       71.20       71.10    
        71.01       70.93       70.84       70.74       70.63       70.52       70.39       70.26       70.13       70.00    
  19    83.26       83.21       83.13       83.00       82.83       82.61       82.35       82.03       81.67       81.25    
        80.76       80.21       79.58       78.84       77.98       76.92       75.58       73.57       69.50       72.67    
        73.82       74.31       74.52       74.58       74.55       74.46       74.32       74.15       73.94       73.71    
        73.45       73.17       72.86       72.52       72.16       71.77       71.37       71.04       70.95       70.92    
        70.90       70.86       70.79       70.71       70.61       70.50       70.38       70.26       70.13       70.00    
  20    83.31       83.26       83.18       83.05       82.88       82.66       82.40       82.09       81.72       81.30    
        80.82       80.28       79.65       78.93       78.09       77.10       75.94       74.56       73.16       73.67    
        74.18       74.49       74.63       74.66       74.62       74.51       74.37       74.18       73.97       73.73    
        73.47       73.17       72.85       72.49       72.08       71.60       71.05       70.49       70.62       70.75    
        70.81       70.81       70.76       70.69       70.60       70.50       70.38       70.26       70.13       70.00    
  21    83.36       83.32       83.24       83.11       82.94       82.72       82.46       82.16       81.80       81.38    
        80.91       80.38       79.77       79.09       78.31       77.43       76.49       75.54       74.78       74.66    
        74.74       74.82       74.85       74.82       74.74       74.61       74.45       74.25       74.03       73.78    
        73.51       73.21       72.87       72.50       72.06       71.52       70.73       69.22       70.29       70.66    
        70.78       70.80       70.76       70.70       70.60       70.50       70.38       70.26       70.13       70.00    
  22    83.42       83.38       83.30       83.17       83.01       82.80       82.54       82.24       81.89       81.48    
        81.03       80.51       79.94       79.30       78.59       77.81       77.03       76.31       75.73       75.43    
        75.29       75.21       75.13       75.03       74.90       74.74       74.56       74.35       74.11       73.86    
        73.58       73.27       72.94       72.57       72.15       71.67       71.11       70.54       70.67       70.80    
        70.85       70.84       70.80       70.72       70.62       70.51       70.39       70.27       70.13       70.00    
  23    83.49       83.45       83.37       83.25       83.08       82.87       82.62       82.33       81.99       81.60    
        81.16       80.67       80.12       79.52       78.88       78.19       77.52       76.90       76.40       76.04    
        75.79       75.60       75.43       75.27       75.09       74.90       74.69       74.46       74.22       73.95    
        73.67       73.37       73.04       72.69       72.31       71.90       71.49       71.15       71.05       71.02    
        70.98       70.93       70.86       70.76       70.66       70.54       70.41       70.28       70.14       70.00    
  24    83.56       83.52       83.44       83.32       83.16       82.96       82.71       82.43       82.10       81.72    
        81.30       80.83       80.32       79.76       79.16       78.54       77.94       77.39       76.91       76.52    
        76.21       75.96       75.73       75.51       75.30       75.07       74.84       74.60       74.34       74.07    
        73.78       73.48       73.16       72.83       72.48       72.13       71.80       71.52       71.35       71.23    
        71.14       71.04       70.94       70.82       70.70       70.57       70.43       70.29       70.15       70.00    
  25    83.64       83.60       83.52       83.40       83.25       83.05       82.81       82.53       82.21       81.85    
        81.45       81.00       80.52       79.99       79.44       78.86       78.30       77.79       77.33       76.93    
        76.59       76.29       76.01       75.76       75.51       75.26       75.00       74.74       74.47       74.19    
        73.91       73.61       73.30       72.98       72.66       72.35       72.05       71.79       71.59       71.43    
        71.29       71.15       71.02       70.89       70.75       70.61       70.46       70.31       70.15       70.00    
  26    83.72       83.68       83.60       83.49       83.33       83.14       82.91       82.64       82.33       81.99    
        81.60       81.17       80.71       80.22       79.69       79.15       78.62       78.13       77.68       77.28    
        76.91       76.58       76.28       75.99       75.72       75.44       75.17       74.90       74.62       74.33    
        74.04       73.74       73.44       73.13       72.83       72.54       72.26       72.01       71.79       71.60    
        71.43       71.27       71.11       70.96       70.81       70.65       70.49       70.33       70.16       70.00    
  27    83.80       83.76       83.69       83.57       83.43       83.24       83.02       82.76       82.46       82.12    
        81.75       81.34       80.90       80.43       79.93       79.41       78.91       78.43       77.99       77.58    
        77.20       76.85       76.53       76.22       75.92       75.63       75.34       75.05       74.76       74.47    
        74.18       73.88       73.58       73.29       72.99       72.71       72.44       72.19       71.96       71.75    
        71.56       71.38       71.20       71.03       70.86       70.69       70.52       70.35       70.17       70.00    
  28    83.88       83.84       83.77       83.66       83.52       83.34       83.12       82.87       82.58       82.25    
        81.90       81.50       81.08       80.63       80.15       79.64       79.16       78.69       78.26       77.85    
        77.46       77.10       76.76       76.43       76.12       75.81       75.51       75.21       74.91       74.62    
        74.32       74.02       73.72       73.43       73.14       72.86       72.60       72.34       72.11       71.89    
        71.68       71.48       71.29       71.10       70.92       70.74       70.55       70.37       70.18       70.00    
  29    83.96       83.93       83.85       83.75       83.61       83.43       83.22       82.98       82.70       82.38    
        82.04       81.66       81.25       80.81       80.34       79.86       79.38       78.93       78.49       78.08    
        77.69       77.32       76.97       76.63       76.30       75.98       75.67       75.36       75.06       74.76    
        74.46       74.16       73.86       73.57       73.28       73.01       72.74       72.48       72.24       72.01    
        71.79       71.58       71.37       71.17       70.97       70.78       70.58       70.39       70.19       70.00    
  30    84.04       84.01       83.94       83.84       83.70       83.53       83.32       83.08       82.81       82.51    
        82.17       81.80       81.41       80.98       80.53       80.05       79.59       79.14       78.71       78.30    
        77.90       77.53       77.16       76.82       76.48       76.15       75.83       75.51       75.20       74.90    
        74.59       74.29       73.99       73.70       73.41       73.14       72.87       72.61       72.36       72.12    
        71.89       71.66       71.45       71.24       71.03       70.82       70.61       70.41       70.20       70.00    
  31    84.12       84.09       84.02       83.92       83.79       83.62       83.42       83.19       82.92       82.63    
        82.30       81.94       81.55       81.14       80.70       80.23       79.77       79.33       78.90       78.49    
        78.09       77.71       77.34       76.99       76.64       76.31       75.98       75.66       75.34       75.03    
        74.72       74.42       74.12       73.82       73.54       73.26       72.98       72.72       72.46       72.22    
        71.98       71.75       71.52       71.30       71.08       70.86       70.64       70.43       70.21       70.00    
  32    84.20       84.17       84.10       84.00       83.87       83.71       83.51       83.29       83.03       82.74    
        82.42       82.07       81.69       81.28       80.85       80.39       79.94       79.50       79.07       78.66    
        78.27       77.88       77.51       77.15       76.80       76.46       76.12       75.79       75.47       75.16    
        74.84       74.54       74.24       73.94       73.65       73.37       73.09       72.82       72.56       72.31    
        72.06       71.82       71.58       71.35       71.12       70.90       70.67       70.45       70.22       70.00    
  33    84.27       84.24       84.18       84.08       83.95       83.79       83.60       83.38       83.13       82.85    
        82.53       82.19       81.82       81.42       80.99       80.53       80.09       79.65       79.23       78.82    
        78.42       78.04       77.66       77.30       76.94       76.60       76.26       75.92       75.60       75.28    
        74.96       74.65       74.35       74.05       73.76       73.47       73.19       72.92       72.65       72.39    
        72.14       71.89       71.64       71.40       71.17       70.93       70.70       70.46       70.23       70.00    
  34    84.34       84.31       84.25       84.16       84.03       83.87       83.69       83.47       83.22       82.94    
        82.64       82.30       81.93       81.54       81.12       80.67       80.23       79.80       79.38       78.97    
        78.57       78.18       77.80       77.43       77.08       76.72       76.38       76.05       75.72       75.39    
        75.07       74.76       74.45       74.15       73.86       73.57       73.28       73.01       72.73       72.47    
        72.21       71.95       71.70       71.45       71.21       70.96       70.72       70.48       70.24       70.00    
  35    84.41       84.38       84.32       84.23       84.10       83.95       83.77       83.55       83.31       83.04    
        82.73       82.40       82.04       81.65       81.23       80.79       80.35       79.92       79.50       79.10    
        78.70       78.31       77.93       77.56       77.20       76.84       76.50       76.16       75.83       75.50    
        75.18       74.86       74.55       74.25       73.95       73.66       73.37       73.09       72.81       72.54    
        72.27       72.01       71.75       71.50       71.24       70.99       70.74       70.50       70.25       70.00    
  36    84.47       84.44       84.38       84.29       84.17       84.02       83.84       83.63       83.39       83.12    
        82.82       82.49       82.14       81.75       81.34       80.90       80.46       80.04       79.62       79.22    
        78.82       78.43       78.05       77.68       77.31       76.96       76.61       76.26       75.93       75.60    
        75.27       74.96       74.64       74.34       74.03       73.74       73.45       73.16       72.88       72.60    
        72.33       72.06       71.80       71.54       71.28       71.02       70.76       70.51       70.26       70.00    
  37    84.53       84.50       84.44       84.35       84.23       84.08       83.90       83.69       83.46       83.19    
        82.90       82.58       82.23       81.85       81.44       81.00       80.57       80.14       79.73       79.32    
        78.93       78.54       78.15       77.78       77.42       77.06       76.71       76.36       76.02       75.69    
        75.36       75.04       74.73       74.42       74.11       73.81       73.52       73.23       72.94       72.66    
        72.38       72.11       71.84       71.57       71.31       71.05       70.78       70.52       70.26       70.00    
  38    84.58       84.55       84.49       84.40       84.28       84.14       83.96       83.75       83.52       83.26    
        82.97       82.65       82.30       81.93       81.52       81.09       80.66       80.24       79.82       79.42    
        79.02       78.63       78.25       77.88       77.51       77.15       76.80       76.45       76.11       75.78    
        75.45       75.12       74.80       74.49       74.18       73.88       73.58       73.29       73.00       72.71    
        72.43       72.16       71.88       71.61       71.34       71.07       70.80       70.53       70.27       70.00    
  39    84.63       84.60       84.54       84.45       84.33       84.18       84.01       83.81       83.58       83.32    
        83.03       82.72       82.37       82.00       81.60       81.16       80.74       80.32       79.91       79.51    
        79.11       78.72       78.34       77.96       77.60       77.24       76.88       76.53       76.19       75.85    
        75.52       75.20       74.87       74.56       74.25       73.94       73.64       73.34       73.05       72.76    
        72.48       72.20       71.92       71.64       71.36       71.09       70.82       70.55       70.27       70.00    
  40    84.67       84.64       84.58       84.49       84.37       84.22       84.05       83.85       83.62       83.37    
        83.08       82.77       82.43       82.06       81.66       81.23       80.81       80.40       79.99       79.58    
        79.19       78.80       78.42       78.04       77.67       77.31       76.96       76.61       76.26       75.92    
        75.59       75.26       74.94       74.62       74.31       74.00       73.70       73.40       73.10       72.81    
        72.52       72.23       71.95       71.67       71.39       71.11       70.83       70.55       70.28       70.00    
  41    84.73       84.67       84.61       84.52       84.40       84.26       84.08       83.89       83.66       83.41    
        83.13       82.82       82.48       82.12       81.72       81.30       80.87       80.46       80.05       79.65    
        79.26       78.87       78.49       78.11       77.74       77.38       77.02       76.67       76.33       75.99    
        75.65       75.32       75.00       74.68       74.36       74.05       73.74       73.44       73.14       72.85    
        72.55       72.26       71.98       71.69       71.41       71.13       70.84       70.56       70.28       70.00    
  42    84.79       84.74       84.64       84.54       84.42       84.28       84.11       83.91       83.69       83.44    
        83.16       82.86       82.53       82.16       81.77       81.35       80.93       80.52       80.11       79.71    
        79.32       78.93       78.55       78.18       77.81       77.44       77.08       76.73       76.38       76.04    
        75.71       75.38       75.05       74.73       74.41       74.10       73.79       73.48       73.18       72.88    
        72.59       72.29       72.00       71.71       71.43       71.14       70.86       70.57       70.29       70.00    
  43    84.84       84.79       84.69       84.55       84.43       84.29       84.12       83.93       83.71       83.46    
        83.19       82.89       82.56       82.20       81.81       81.39       80.98       80.57       80.16       79.77    
        79.37       78.99       78.60       78.23       77.86       77.50       77.14       76.78       76.44       76.09    
        75.76       75.42       75.09       74.77       74.45       74.14       73.82       73.52       73.21       72.91    
        72.61       72.32       72.03       71.73       71.44       71.15       70.87       70.58       70.29       70.00    
  44    84.86       84.82       84.72       84.60       84.43       84.29       84.12       83.93       83.72       83.48    
        83.21       82.91       82.59       82.23       81.85       81.43       81.02       80.61       80.21       79.81    
        79.42       79.03       78.65       78.28       77.91       77.54       77.18       76.83       76.48       76.14    
        75.80       75.46       75.13       74.81       74.49       74.17       73.86       73.55       73.24       72.94    
        72.64       72.34       72.05       71.75       71.46       71.17       70.87       70.58       70.29       70.00    
  45  -1000.0       84.81       84.74       84.62       84.47       84.28       84.11       83.93       83.72       83.48    
        83.22       82.92       82.60       82.25       81.87       81.46       81.05       80.64       80.24       79.85    
        79.46       79.07       78.69       78.32       77.95       77.58       77.22       76.87       76.52       76.17    
        75.83       75.50       75.17       74.84       74.52       74.20       73.89       73.57       73.27       72.96    
        72.66       72.36       72.06       71.77       71.47       71.18       70.88       70.59       70.29       70.00    
  46  -1000.0     -1000.0       84.71       84.61       84.47       84.30       84.09       83.91       83.70       83.47    
        83.22       82.93       82.62       82.27       81.89       81.48       81.07       80.67       80.27       79.88    
        79.49       79.10       78.72       78.35       77.98       77.61       77.25       76.90       76.55       76.20    
        75.86       75.53       75.20       74.87       74.54       74.22       73.91       73.60       73.29       72.98    
        72.68       72.38       72.08       71.78       71.48       71.18       70.89       70.59       70.30       70.00    
  47  -1000.0     -1000.0     -1000.0       84.57       84.46       84.30       84.11       83.88       83.68       83.46    
        83.21       82.93       82.62       82.28       81.90       81.50       81.09       80.69       80.29       79.90    
        79.51       79.13       78.75       78.37       78.00       77.64       77.28       76.92       76.57       76.23    
        75.89       75.55       75.22       74.89       74.56       74.24       73.93       73.61       73.30       73.00    
        72.69       72.39       72.09       71.79       71.49       71.19       70.89       70.60       70.30       70.00    
  48  -1000.0     -1000.0     -1000.0     -1000.0       84.40       84.27       84.10       83.90       83.65       83.43    
        83.19       82.92       82.62       82.28       81.91       81.51       81.11       80.71       80.31       79.92    
        79.53       79.15       78.77       78.39       78.02       77.66       77.30       76.94       76.59       76.25    
        75.90       75.57       75.23       74.91       74.58       74.26       73.94       73.63       73.32       73.01    
        72.70       72.40       72.09       71.79       71.49       71.20       70.90       70.60       70.30       70.00    
  49  -1000.0     -1000.0     -1000.0     -1000.0     -1000.0       84.22       84.08       83.90       83.67       83.39    
        83.16       82.91       82.61       82.28       81.92       81.51       81.11       80.72       80.32       79.93    
        79.54       79.16       78.78       78.41       78.04       77.67       77.31       76.96       76.60       76.26    
        75.92       75.58       75.25       74.92       74.59       74.27       73.95       73.64       73.32       73.01    
        72.71       72.40       72.10       71.80       71.50       71.20       70.90       70.60       70.30       70.00    
  50  -1000.0     -1000.0     -1000.0     -1000.0     -1000.0     -1000.0       84.02       83.89       83.68       83.42    
        83.12       82.89       82.61       82.28       81.92       81.52       81.12       80.72       80.33       79.94    
        79.55       79.17       78.79       78.41       78.04       77.68       77.32       76.96       76.61       76.26    
        75.92       75.58       75.25       74.92       74.60       74.27       73.96       73.64       73.33       73.02    
        72.71       72.41       72.10       71.80       71.50       71.20       70.90       70.60       70.30       70.00    
1
              HEAD IN LAYER   2 AT END OF TIME STEP   1 IN STRESS PERIOD    1
  ---------------------------------------------------------------------------

            1           2           3           4           5           6           7           8           9          10
           11          12          13          14          15          16          17          18          19          20
           21          22          23          24          25          26          27          28          29          30
           31          32          33          34          35          36          37          38          39          40
           41          42          43          44          45          46          47          48          49          50
 ........................................................................................................................
   1  -1000.0     -1000.0     -1000.0     -1000.0     -1000.0     -1000.0     -1000.0     -1000.0       81.64       81.35    
        81.03       80.78       80.48       80.14       79.76       79.34       78.93       78.53       78.14       77.76    
        77.39       77.04       76.69       76.35       76.02       75.71       75.40       75.10       74.81       74.53    
        74.26       73.99       73.73       73.48       73.23       72.99       72.75       72.52       72.29       72.07    
        71.85       71.64       71.43       71.22       71.01       70.81       70.60       70.40       70.20       70.00    
   2  -1000.0     -1000.0     -1000.0     -1000.0     -1000.0     -1000.0     -1000.0       81.89       81.63       81.32    
        81.07       80.80       80.48       80.13       79.75       79.33       78.92       78.52       78.13       77.75    
        77.38       77.02       76.68       76.34       76.01       75.70       75.39       75.09       74.81       74.52    
        74.25       73.99       73.73       73.47       73.22       72.98       72.75       72.51       72.29       72.07    
        71.85       71.63       71.42       71.21       71.01       70.80       70.60       70.40       70.20       70.00    
   3  -1000.0     -1000.0     -1000.0     -1000.0     -1000.0     -1000.0       82.13       81.89       81.61       81.37    
        81.10       80.81       80.48       80.13       79.74       79.32       78.90       78.50       78.11       77.73    
        77.36       77.00       76.65       76.31       75.99       75.68       75.37       75.07       74.79       74.51    
        74.24       73.97       73.71       73.46       73.21       72.97       72.73       72.50       72.28       72.06    
        71.84       71.63       71.42       71.21       71.00       70.80       70.60       70.40       70.20       70.00    
   4  -1000.0     -1000.0     -1000.0     -1000.0     -1000.0       82.37       82.14       81.88       81.65       81.40    
        81.12       80.81       80.48       80.11       79.72       79.29       78.87       78.47       78.07       77.69    
        77.32       76.96       76.61       76.28       75.96       75.64       75.34       75.05       74.76       74.48    
        74.21       73.95       73.69       73.44       73.19       72.95       72.72       72.49       72.26       72.04    
        71.83       71.61       71.40       71.20       71.00       70.79       70.59       70.40       70.20       70.00    
   5  -1000.0     -1000.0     -1000.0     -1000.0       82.59       82.38       82.13       81.92       81.69       81.42    
        81.13       80.81       80.46       80.09       79.68       79.25       78.83       78.42       78.02       77.63    
        77.26       76.91       76.56       76.23       75.91       75.60       75.30       75.01       74.72       74.45    
        74.18       73.92       73.66       73.41       73.17       72.93       72.69       72.47       72.24       72.02    
        71.81       71.60       71.39       71.19       70.99       70.79       70.59       70.39       70.20       70.00    
   6  -1000.0     -1000.0     -1000.0       82.79       82.60       82.37       82.18       81.96       81.71       81.43    
        81.13       80.80       80.44       80.05       79.64       79.20       78.77       78.35       77.95       77.57    
        77.20       76.84       76.50       76.17       75.85       75.54       75.25       74.96       74.68       74.41    
        74.14       73.88       73.63       73.38       73.14       72.90       72.66       72.44       72.22       72.00    
        71.79       71.58       71.37       71.17       70.97       70.78       70.58       70.39       70.19       70.00    
   7  -1000.0     -1000.0       82.95       82.79       82.59       82.41       82.21       81.98       81.72       81.43    
        81.12       80.78       80.41       80.01       79.58       79.13       78.70       78.27       77.87       77.48    
        77.11       76.76       76.42       76.09       75.78       75.48       75.19       74.90       74.63       74.36    
        74.10       73.84       73.59       73.34       73.10       72.86       72.63       72.40       72.18       71.97    
        71.76       71.55       71.35       71.15       70.96       70.76       70.57       70.38       70.19       70.00    
   8  -1000.0       83.06       82.95       82.77       82.62       82.44       82.23       81.99       81.72       81.42    
        81.10       80.74       80.36       79.95       79.51       79.05       78.60       78.18       77.77       77.38    
        77.01       76.66       76.32       76.00       75.70       75.40       75.12       74.84       74.57       74.30    
        74.04       73.79       73.54       73.29       73.05       72.82       72.59       72.36       72.15       71.93    
        71.73       71.52       71.32       71.13       70.94       70.75       70.56       70.37       70.19       70.00    
   9    83.11       83.05       82.92       82.80       82.64       82.45       82.24       81.99       81.71       81.41    
        81.07       80.70       80.30       79.88       79.42       78.95       78.49       78.06       77.64       77.25    
        76.88       76.54       76.21       75.90       75.60       75.31       75.04       74.77       74.50       74.24    
        73.98       73.73       73.48       73.24       73.00       72.77       72.54       72.32       72.10       71.89    
        71.69       71.49       71.29       71.10       70.92       70.73       70.55       70.36       70.18       70.00    
  10    83.09       83.02       82.93       82.81       82.65       82.46       82.24       81.99       81.70       81.38    
        81.03       80.64       80.23       79.79       79.32       78.83       78.36       77.91       77.49       77.10    
        76.74       76.40       76.08       75.78       75.49       75.22       74.95       74.69       74.43       74.17    
        73.92       73.67       73.43       73.18       72.95       72.71       72.49       72.27       72.05       71.85    
        71.65       71.45       71.26       71.07       70.89       70.71       70.53       70.35       70.18       70.00    
  11    83.08       83.03       82.94       82.82       82.66       82.47       82.24       81.98       81.68       81.35    
        80.98       80.58       80.15       79.69       79.20       78.69       78.20       77.74       77.31       76.92    
        76.56       76.23       75.93       75.65       75.37       75.11       74.86       74.60       74.35       74.10    
        73.85       73.61       73.36       73.12       72.88       72.65       72.42       72.21       72.00       71.79    
        71.60       71.41       71.22       71.04       70.86       70.69       70.52       70.34       70.17       70.00    
  12    83.08       83.03       82.95       82.83       82.67       82.47       82.24       81.97       81.66       81.32    
        80.93       80.51       80.06       79.57       79.05       78.52       78.00       77.53       77.09       76.70    
        76.35       76.04       75.76       75.50       75.24       75.00       74.76       74.52       74.27       74.03    
        73.79       73.54       73.30       73.05       72.81       72.58       72.35       72.14       71.93       71.73    
        71.54       71.36       71.18       71.00       70.83       70.67       70.50       70.33       70.17       70.00    
  13    83.09       83.04       82.96       82.84       82.68       82.48       82.24       81.96       81.64       81.28    
        80.88       80.44       79.96       79.44       78.89       78.32       77.77       77.27       76.82       76.44    
        76.11       75.82       75.57       75.33       75.11       74.88       74.66       74.43       74.19       73.96    
        73.72       73.47       73.23       72.98       72.74       72.50       72.28       72.06       71.85       71.66    
        71.48       71.30       71.13       70.96       70.80       70.64       70.48       70.32       70.16       70.00    
  14    83.10       83.06       82.98       82.85       82.69       82.48       82.24       81.95       81.62       81.25    
        80.83       80.36       79.85       79.30       78.71       78.09       77.50       76.95       76.49       76.11    
        75.82       75.57       75.36       75.16       74.97       74.77       74.56       74.34       74.12       73.89    
        73.65       73.40       73.15       72.90       72.66       72.42       72.19       71.97       71.77       71.58    
        71.40       71.24       71.08       70.92       70.77       70.61       70.46       70.31       70.15       70.00    
  15    83.12       83.08       82.99       82.87       82.70       82.49       82.24       81.95       81.61       81.22    
        80.78       80.29       79.75       79.16       78.51       77.83       77.16       76.56       76.06       75.71    
        75.47       75.29       75.14       74.99       74.83       74.66       74.47       74.27       74.05       73.82    
        73.58       73.34       73.08       72.82       72.57       72.32       72.08       71.86       71.66       71.48    
        71.32       71.17       71.02       70.88       70.73       70.59       70.44       70.30       70.15       70.00    
  16    83.14       83.10       83.02       82.89       82.72       82.51       82.25       81.95       81.60       81.20    
        80.74       80.23       79.66       79.02       78.31       77.54       76.77       76.04       75.48       75.18    
        75.05       74.98       74.91       74.82       74.71       74.56       74.39       74.20       74.00       73.77    
        73.53       73.28       73.01       72.74       72.47       72.21       71.96       71.73       71.54       71.37    
        71.23       71.09       70.96       70.83       70.70       70.56       70.42       70.28       70.14       70.00    
  17    83.18       83.13       83.05       82.92       82.75       82.54       82.27       81.97       81.61       81.20    
        80.73       80.19       79.59       78.90       78.13       77.25       76.31       75.36       74.61       74.49    
        74.58       74.67       74.70       74.68       74.61       74.49       74.34       74.16       73.96       73.73    
        73.49       73.22       72.95       72.66       72.37       72.08       71.81       71.57       71.39       71.25    
        71.13       71.01       70.90       70.78       70.66       70.54       70.41       70.27       70.14       70.00    
  18    83.21       83.17       83.09       82.96       82.79       82.57       82.31       81.99       81.63       81.21    
        80.73       80.18       79.56       78.84       78.00       77.01       75.85       74.47       73.08       73.59    
        74.10       74.41       74.56       74.59       74.55       74.45       74.31       74.14       73.94       73.71    
        73.46       73.19       72.90       72.59       72.26       71.93       71.62       71.36       71.20       71.10    
        71.01       70.93       70.84       70.74       70.63       70.52       70.39       70.26       70.13       70.00    
  19    83.26       83.21       83.13       83.00       82.83       82.61       82.35       82.03       81.67       81.25    
        80.76       80.21       79.58       78.84       77.98       76.92       75.58       73.57       69.50       72.67    
        73.82       74.31       74.52       74.58       74.55       74.46       74.32       74.15       73.94       73.71    
        73.45       73.17       72.86       72.52       72.16       71.77       71.37       71.04       70.95       70.92    
        70.90       70.86       70.79       70.71       70.61       70.50       70.38       70.26       70.13       70.00    
  20    83.31       83.26       83.18       83.05       82.88       82.66       82.40       82.09       81.72       81.30    
        80.82       80.28       79.65       78.93       78.09       77.10       75.94       74.56       73.16       73.67    
        74.18       74.49       74.63       74.66       74.62       74.51       74.37       74.18       73.97       73.73    
        73.47       73.17       72.85       72.49       72.08       71.60       71.05       70.49       70.62       70.75    
        70.81       70.81       70.76       70.69       70.60       70.50       70.38       70.26       70.13       70.00    
  21    83.36       83.32       83.24       83.11       82.94       82.72       82.46       82.16       81.80       81.38    
        80.91       80.38       79.77       79.09       78.31       77.43       76.49       75.54       74.78       74.66    
        74.74       74.82       74.85       74.82       74.74       74.61       74.45       74.25       74.03       73.78    
        73.51       73.21       72.87       72.50       72.06       71.52       70.73       69.22       70.29       70.66    
        70.78       70.80       70.76       70.70       70.60       70.50       70.38       70.26       70.13       70.00    
  22    83.42       83.38       83.30       83.17       83.01       82.80       82.54       82.24       81.89       81.48    
        81.03       80.51       79.94       79.29       78.59       77.81       77.03       76.31       75.73       75.43    
        75.29       75.21       75.13       75.03       74.90       74.74       74.56       74.35       74.11       73.86    
        73.58       73.27       72.94       72.57       72.15       71.67       71.11       70.54       70.67       70.80    
        70.85       70.84       70.80       70.72       70.62       70.51       70.39       70.27       70.13       70.00    
  23    83.49       83.45       83.37       83.25       83.08       82.87       82.62       82.33       81.99       81.60    
        81.16       80.67       80.12       79.52       78.88       78.19       77.52       76.90       76.40       76.04    
        75.79       75.60       75.43       75.27       75.09       74.90       74.69       74.46       74.22       73.95    
        73.67       73.37       73.04       72.69       72.31       71.90       71.49       71.15       71.05       71.02    
        70.98       70.93       70.86       70.76       70.66       70.54       70.41       70.28       70.14       70.00    
  24    83.56       83.52       83.44       83.32       83.16       82.96       82.71       82.43       82.10       81.72    
        81.30       80.83       80.32       79.76       79.16       78.54       77.94       77.39       76.91       76.52    
        76.21       75.96       75.73       75.51       75.30       75.07       74.84       74.60       74.34       74.07    
        73.78       73.48       73.16       72.83       72.48       72.13       71.80       71.52       71.35       71.23    
        71.14       71.04       70.94       70.82       70.70       70.57       70.43       70.29       70.15       70.00    
  25    83.64       83.60       83.52       83.40       83.25       83.05       82.81       82.53       82.21       81.85    
        81.45       81.00       80.52       79.99       79.44       78.86       78.30       77.79       77.33       76.93    
        76.59       76.29       76.01       75.76       75.51       75.26       75.00       74.74       74.47       74.19    
        73.91       73.61       73.30       72.98       72.66       72.35       72.05       71.79       71.59       71.43    
        71.29       71.15       71.02       70.89       70.75       70.61       70.46       70.31       70.15       70.00    
  26    83.72       83.68       83.60       83.49       83.33       83.14       82.91       82.64       82.33       81.99    
        81.60       81.17       80.71       80.22       79.69       79.15       78.62       78.13       77.68       77.28    
        76.91       76.58       76.28       75.99       75.72       75.44       75.17       74.90       74.62       74.33    
        74.04       73.74       73.44       73.13       72.83       72.54       72.26       72.01       71.79       71.60    
        71.43       71.27       71.11       70.96       70.81       70.65       70.49       70.33       70.16       70.00    
  27    83.80       83.76       83.69       83.57       83.43       83.24       83.02       82.76       82.46       82.12    
        81.75       81.34       80.90       80.43       79.93       79.41       78.91       78.43       77.99       77.58    
        77.20       76.85       76.53       76.22       75.92       75.63       75.34       75.05       74.76       74.47    
        74.18       73.88       73.58       73.29       72.99       72.71       72.44       72.19       71.96       71.75    
        71.56       71.38       71.20       71.03       70.86       70.69       70.52       70.35       70.17       70.00    
  28    83.88       83.84       83.77       83.66       83.52       83.34       83.12       82.87       82.58       82.25    
        81.90       81.50       81.08       80.63       80.15       79.64       79.16       78.69       78.26       77.85    
        77.46       77.10       76.76       76.43       76.12       75.81       75.51       75.21       74.91       74.62    
        74.32       74.02       73.72       73.43       73.14       72.86       72.60       72.34       72.11       71.89    
        71.68       71.48       71.29       71.10       70.92       70.74       70.55       70.37       70.18       70.00    
  29    83.96       83.93       83.85       83.75       83.61       83.43       83.22       82.98       82.70       82.38    
        82.04       81.66       81.25       80.81       80.34       79.86       79.38       78.93       78.49       78.08    
        77.69       77.32       76.97       76.63       76.30       75.98       75.67       75.36       75.06       74.76    
        74.46       74.16       73.86       73.57       73.28       73.01       72.74       72.48       72.24       72.01    
        71.79       71.58       71.37       71.17       70.97       70.78       70.58       70.39       70.19       70.00    
  30    84.04       84.01       83.94       83.84       83.70       83.53       83.32       83.08       82.81       82.51    
        82.17       81.80       81.41       80.98       80.53       80.05       79.59       79.14       78.71       78.30    
        77.90       77.53       77.16       76.82       76.48       76.15       75.83       75.51       75.20       74.90    
        74.59       74.29       73.99       73.70       73.41       73.14       72.87       72.61       72.36       72.12    
        71.89       71.66       71.45       71.24       71.03       70.82       70.61       70.41       70.20       70.00    
  31    84.12       84.09       84.02       83.92       83.79       83.62       83.42       83.19       82.92       82.63    
        82.30       81.94       81.55       81.14       80.70       80.23       79.77       79.33       78.90       78.49    
        78.09       77.71       77.34       76.99       76.64       76.31       75.98       75.66       75.34       75.03    
        74.72       74.42       74.12       73.82       73.54       73.26       72.98       72.72       72.46       72.22    
        71.98       71.75       71.52       71.30       71.08       70.86       70.64       70.43       70.21       70.00    
  32    84.20       84.17       84.10       84.00       83.87       83.71       83.51       83.29       83.03       82.74    
        82.42       82.07       81.69       81.28       80.85       80.39       79.94       79.50       79.07       78.66    
        78.27       77.88       77.51       77.15       76.80       76.46       76.12       75.79       75.47       75.16    
        74.84       74.54       74.24       73.94       73.65       73.37       73.09       72.82       72.56       72.31    
        72.06       71.82       71.58       71.35       71.12       70.90       70.67       70.45       70.22       70.00    
  33    84.27       84.24       84.18       84.08       83.95       83.79       83.60       83.38       83.13       82.85    
        82.53       82.19       81.82       81.42       80.99       80.53       80.09       79.65       79.23       78.82    
        78.42       78.04       77.66       77.30       76.94       76.60       76.26       75.92       75.60       75.28    
        74.96       74.65       74.35       74.05       73.76       73.47       73.19       72.92       72.65       72.39    
        72.14       71.89       71.64       71.40       71.17       70.93       70.70       70.46       70.23       70.00    
  34    84.34       84.31       84.25       84.16       84.03       83.87       83.69       83.47       83.22       82.94    
        82.64       82.30       81.93       81.54       81.12       80.67       80.23       79.80       79.38       78.97    
        78.57       78.18       77.80       77.43       77.08       76.72       76.38       76.05       75.72       75.39    
        75.07       74.76       74.45       74.15       73.86       73.57       73.28       73.01       72.73       72.47    
        72.21       71.95       71.70       71.45       71.21       70.96       70.72       70.48       70.24       70.00    
  35    84.41       84.38       84.32       84.23       84.10       83.95       83.77       83.55       83.31       83.04    
        82.73       82.40       82.04       81.65       81.23       80.79       80.35       79.92       79.50       79.10    
        78.70       78.31       77.93       77.56       77.20       76.84       76.50       76.16       75.83       75.50    
        75.18       74.86       74.55       74.25       73.95       73.66       73.37       73.09       72.81       72.54    
        72.27       72.01       71.75       71.50       71.24       70.99       70.74       70.50       70.25       70.00    
  36    84.47       84.44       84.38       84.29       84.17       84.02       83.84       83.63       83.39       83.12    
        82.82       82.49       82.14       81.75       81.34       80.90       80.46       80.04       79.62       79.22    
        78.82       78.43       78.05       77.68       77.31       76.96       76.61       76.26       75.93       75.60    
        75.27       74.96       74.64       74.34       74.03       73.74       73.45       73.16       72.88       72.60    
        72.33       72.06       71.80       71.54       71.28       71.02       70.76       70.51       70.26       70.00    
  37    84.53       84.50       84.44       84.35       84.23       84.08       83.90       83.69       83.46       83.19    
        82.90       82.58       82.23       81.85       81.44       81.00       80.57       80.14       79.73       79.32    
        78.93       78.54       78.15       77.78       77.42       77.06       76.71       76.36       76.02       75.69    
        75.36       75.04       74.73       74.42       74.11       73.81       73.52       73.23       72.94       72.66    
        72.38       72.11       71.84       71.57       71.31       71.05       70.78       70.52       70.26       70.00    
  38    84.58       84.55       84.49       84.40       84.28       84.14       83.96       83.75       83.52       83.26    
        82.97       82.65       82.30       81.93       81.52       81.09       80.66       80.24       79.82       79.42    
        79.02       78.63       78.25       77.88       77.51       77.15       76.80       76.45       76.11       75.78    
        75.45       75.12       74.80       74.49       74.18       73.88       73.58       73.29       73.00       72.71    
        72.43       72.16       71.88       71.61       71.34       71.07       70.80       70.53       70.27       70.00    
  39    84.63       84.60       84.54       84.45       84.33       84.18       84.01       83.81       83.58       83.32    
        83.03       82.72       82.37       82.00       81.60       81.16       80.74       80.32       79.91       79.51    
        79.11       78.72       78.34       77.96       77.60       77.24       76.88       76.53       76.19       75.85    
        75.52       75.20       74.87       74.56       74.25       73.94       73.64       73.34       73.05       72.76    
        72.48       72.20       71.92       71.64       71.36       71.09       70.82       70.55       70.27       70.00    
  40    84.67       84.64       84.58       84.49       84.37       84.22       84.05       83.85       83.62       83.37    
        83.08       82.77       82.43       82.06       81.66       81.23       80.81       80.40       79.99       79.58    
        79.19       78.80       78.42       78.04       77.67       77.31       76.96       76.61       76.26       75.92    
        75.59       75.26       74.94       74.62       74.31       74.00       73.70       73.40       73.10       72.81    
        72.52       72.23       71.95       71.67       71.39       71.11       70.83       70.55       70.28       70.00    
  41    84.73       84.67       84.61       84.52       84.40       84.26       84.08       83.89       83.66       83.41    
        83.13       82.82       82.48       82.12       81.72       81.30       80.87       80.46       80.05       79.65    
        79.26       78.87       78.49       78.11       77.74       77.38       77.02       76.67       76.33       75.99    
        75.65       75.32       75.00       74.68       74.36       74.05       73.74       73.44       73.14       72.85    
        72.55       72.26       71.98       71.69       71.41       71.13       70.84       70.56       70.28       70.00    
  42    84.79       84.74       84.64       84.54       84.42       84.28       84.11       83.91       83.69       83.44    
        83.16       82.86       82.53       82.16       81.77       81.35       80.93       80.52       80.11       79.71    
        79.32       78.93       78.55       78.18       77.81       77.44       77.08       76.73       76.38       76.04    
        75.71       75.38       75.05       74.73       74.41       74.10       73.79       73.48       73.18       72.88    
        72.59       72.29       72.00       71.71       71.43       71.14       70.86       70.57       70.29       70.00    
  43  -1000.0       84.79       84.69       84.55       84.43       84.29       84.12       83.93       83.71       83.46    
        83.19       82.89       82.56       82.20       81.81       81.39       80.98       80.57       80.16       79.77    
        79.37       78.99       78.60       78.23       77.86       77.50       77.14       76.78       76.44       76.09    
        75.76       75.42       75.09       74.77       74.45       74.14       73.82       73.52       73.21       72.91    
        72.61       72.32       72.03       71.73       71.44       71.15       70.87       70.58       70.29       70.00    
  44  -1000.0     -1000.0       84.72       84.60       84.43       84.29       84.12       83.93       83.72       83.48    
        83.21       82.91       82.59       82.23       81.85       81.43       81.02       80.61       80.21       79.81    
        79.42       79.03       78.65       78.28       77.91       77.54       77.18       76.83       76.48       76.14    
        75.80       75.46       75.13       74.81       74.49       74.17       73.86       73.55       73.24       72.94    
        72.64       72.34       72.05       71.75       71.46       71.17       70.87       70.58       70.29       70.00    
  45  -1000.0     -1000.0     -1000.0       84.62       84.47       84.28       84.11       83.93       83.72       83.48    
        83.22       82.92       82.60       82.25       81.87       81.46       81.05       80.64       80.24       79.85    
        79.46       79.07       78.69       78.32       77.95       77.58       77.22       76.87       76.52       76.17    
        75.83       75.50       75.17       74.84       74.52       74.20       73.89       73.57       73.27       72.96    
        72.66       72.36       72.06       71.77       71.47       71.18       70.88       70.59       70.29       70.00    
  46  -1000.0     -1000.0     -1000.0     -1000.0       84.47       84.30       84.09       83.91       83.70       83.47    
        83.22       82.93       82.61       82.27       81.89       81.48       81.07       80.67       80.27       79.88    
        79.49       79.10       78.72       78.35       77.98       77.61       77.25       76.90       76.55       76.20    
        75.86       75.53       75.20       74.87       74.54       74.22       73.91       73.60       73.29       72.98    
        72.68       72.38       72.08       71.78       71.48       71.18       70.89       70.59       70.30       70.00    
  47  -1000.0     -1000.0     -1000.0     -1000.0     -1000.0       84.30       84.11       83.88       83.68       83.46    
        83.21       82.93       82.62       82.28       81.90       81.50       81.09       80.69       80.29       79.90    
        79.51       79.13       78.75       78.37       78.00       77.64       77.28       76.92       76.57       76.23    
        75.89       75.55       75.22       74.89       74.56       74.24       73.93       73.61       73.30       73.00    
        72.69       72.39       72.09       71.79       71.49       71.19       70.89       70.60       70.30       70.00    
  48  -1000.0     -1000.0     -1000.0     -1000.0     -1000.0     -1000.0       84.10       83.90       83.65       83.43    
        83.19       82.92       82.62       82.28       81.91       81.51       81.11       80.71       80.31       79.92    
        79.53       79.15       78.77       78.39       78.02       77.66       77.30       76.94       76.59       76.25    
        75.90       75.57       75.23       74.91       74.58       74.26       73.94       73.63       73.32       73.01    
        72.70       72.40       72.09       71.79       71.49       71.20       70.90       70.60       70.30       70.00    
  49  -1000.0     -1000.0     -1000.0     -1000.0     -1000.0     -1000.0     -1000.0       83.90       83.67       83.39    
        83.16       82.91       82.61       82.28       81.92       81.51       81.11       80.72       80.32       79.93    
        79.54       79.16       78.78       78.41       78.04       77.67       77.31       76.96       76.60       76.26    
        75.92       75.58       75.25       74.92       74.59       74.27       73.95       73.64       73.32       73.01    
        72.71       72.40       72.10       71.80       71.50       71.20       70.90       70.60       70.30       70.00    
  50  -1000.0     -1000.0     -1000.0     -1000.0     -1000.0     -1000.0     -1000.0     -1000.0       83.68       83.42    
        83.12       82.89       82.61       82.28       81.92       81.52       81.12       80.72       80.33       79.94    
        79.55       79.17       78.79       78.41       78.04       77.68       77.32       76.96       76.61       76.26    
        75.92       75.58       75.25       74.92       74.60       74.27       73.96       73.64       73.33       73.02    
        72.71       72.41       72.10       71.80       71.50       71.20       70.90       70.60       70.30       70.00    
1
              HEAD IN LAYER   3 AT END OF TIME STEP   1 IN STRESS PERIOD    1
  ---------------------------------------------------------------------------

            1           2           3           4           5           6           7           8           9          10
           11          12          13          14          15          16          17          18          19          20
           21          22          23          24          25          26          27          28          29          30
           31          32          33          34          35          36          37          38          39          40
           41          42          43          44          45          46          47          48          49          50
 ........................................................................................................................
   1  -1000.0     -1000.0     -1000.0     -1000.0     -1000.0     -1000.0     -1000.0     -1000.0     -1000.0     -1000.0    
        81.03       80.78       80.48       80.14       79.76       79.34       78.93       78.53       78.14       77.76    
        77.39       77.04       76.69       76.35       76.02       75.71       75.40       75.10       74.81       74.53    
        74.26       73.99       73.73       73.48       73.23       72.99       72.75       72.52       72.29       72.07    
        71.85       71.64       71.43       71.22       71.01       70.81       70.60       70.40       70.20       70.00    
   2  -1000.0     -1000.0     -1000.0     -1000.0     -1000.0     -1000.0     -1000.0     -1000.0     -1000.0       81.32    
        81.07       80.80       80.48       80.13       79.75       79.33       78.92       78.52       78.13       77.75    
        77.38       77.02       76.68       76.34       76.01       75.70       75.39       75.09       74.81       74.52    
        74.25       73.99       73.73       73.47       73.22       72.98       72.75       72.51       72.29       72.07    
        71.85       71.63       71.42       71.21       71.01       70.80       70.60       70.40       70.20       70.00    
   3  -1000.0     -1000.0     -1000.0     -1000.0     -1000.0     -1000.0     -1000.0     -1000.0       81.61       81.37    
        81.10       80.81       80.48       80.13       79.74       79.32       78.90       78.50       78.11       77.73    
        77.36       77.00       76.65       76.31       75.99       75.68       75.37       75.07       74.79       74.51    
        74.24       73.97       73.71       73.46       73.21       72.97       72.73       72.50       72.28       72.06    
        71.84       71.63       71.42       71.21       71.00       70.80       70.60       70.40       70.20       70.00    
   4  -1000.0     -1000.0     -1000.0     -1000.0     -1000.0     -1000.0     -1000.0       81.88       81.65       81.40    
        81.12       80.81       80.48       80.11       79.72       79.29       78.87       78.47       78.07       77.69    
        77.32       76.96       76.61       76.28       75.96       75.64       75.34       75.05       74.76       74.48    
        74.21       73.95       73.69       73.44       73.19       72.95       72.72       72.49       72.26       72.04    
        71.83       71.61       71.40       71.20       71.00       70.79       70.59       70.40       70.20       70.00    
   5  -1000.0     -1000.0     -1000.0     -1000.0     -1000.0     -1000.0       82.13       81.92       81.69       81.42    
        81.13       80.81       80.46       80.09       79.68       79.25       78.83       78.42       78.02       77.63    
        77.26       76.91       76.56       76.23       75.91       75.60       75.30       75.01       74.72       74.45    
        74.18       73.92       73.66       73.41       73.17       72.93       72.69       72.47       72.24       72.02    
[...]
        70.98       70.93       70.86       70.76       70.66       70.54       70.41       70.28       70.14       70.00    
  24    83.56       83.52       83.44       83.32       83.16       82.96       82.71       82.43       82.10       81.72    
        81.30       80.83       80.32       79.76       79.16       78.54       77.94       77.39       76.91       76.52    
        76.21       75.96       75.73       75.51       75.30       75.07       74.84       74.60       74.34       74.07    
        73.78       73.48       73.16       72.83       72.48       72.13       71.80       71.52       71.35       71.23    
        71.14       71.04       70.94       70.82       70.70       70.57       70.43       70.29       70.15       70.00    
  25    83.64       83.60       83.52       83.40       83.25       83.05       82.81       82.53       82.21       81.85    
        81.45       81.00       80.52       79.99       79.44       78.86       78.30       77.79       77.33       76.93    
        76.59       76.29       76.01       75.76       75.51       75.26       75.00       74.74       74.47       74.19    
        73.91       73.61       73.30       72.98       72.66       72.35       72.05       71.79       71.59       71.43    
        71.29       71.15       71.02       70.89       70.75       70.61       70.46       70.31       70.15       70.00    
  26    83.72       83.68       83.60       83.49       83.33       83.14       82.91       82.64       82.33       81.99    
        81.60       81.17       80.71       80.22       79.69       79.15       78.62       78.13       77.68       77.28    
        76.91       76.58       76.28       75.99       75.72       75.44       75.17       74.90       74.62       74.33    
        74.04       73.74       73.44       73.13       72.83       72.54       72.26       72.01       71.79       71.60    
        71.43       71.27       71.11       70.96       70.81       70.65       70.49       70.33       70.16       70.00    
  27    83.80       83.76       83.69       83.57       83.43       83.24       83.02       82.75       82.46       82.12    
        81.75       81.34       80.90       80.43       79.93       79.41       78.91       78.43       77.99       77.58    
        77.20       76.85       76.53       76.22       75.92       75.63       75.34       75.05       74.76       74.47    
        74.18       73.88       73.58       73.29       72.99       72.71       72.44       72.19       71.96       71.75    
        71.56       71.38       71.20       71.03       70.86       70.69       70.52       70.35       70.17       70.00    
  28    83.88       83.84       83.77       83.66       83.52       83.34       83.12       82.87       82.58       82.25    
        81.90       81.50       81.08       80.63       80.15       79.64       79.16       78.69       78.26       77.85    
        77.46       77.10       76.76       76.43       76.12       75.81       75.51       75.21       74.91       74.62    
        74.32       74.02       73.72       73.43       73.14       72.86       72.60       72.34       72.11       71.89    
        71.68       71.48       71.29       71.10       70.92       70.74       70.55       70.37       70.18       70.00    
  29    83.96       83.92       83.85       83.75       83.61       83.43       83.22       82.98       82.70       82.38    
        82.04       81.66       81.25       80.81       80.34       79.86       79.38       78.93       78.49       78.08    
        77.69       77.32       76.97       76.63       76.30       75.98       75.67       75.36       75.06       74.76    
        74.46       74.16       73.86       73.57       73.28       73.01       72.74       72.48       72.24       72.01    
        71.79       71.58       71.37       71.17       70.97       70.78       70.58       70.39       70.19       70.00    
  30    84.04       84.01       83.94       83.84       83.70       83.53       83.32       83.08       82.81       82.51    
        82.17       81.80       81.41       80.98       80.53       80.05       79.59       79.14       78.71       78.30    
        77.90       77.53       77.16       76.82       76.48       76.15       75.83       75.51       75.20       74.90    
        74.59       74.29       73.99       73.70       73.41       73.14       72.87       72.61       72.36       72.12    
        71.89       71.66       71.45       71.24       71.03       70.82       70.61       70.41       70.20       70.00    
  31    84.12       84.09       84.02       83.92       83.79       83.62       83.42       83.19       82.92       82.63    
        82.30       81.94       81.55       81.14       80.70       80.23       79.77       79.33       78.90       78.49    
        78.09       77.71       77.34       76.99       76.64       76.31       75.98       75.66       75.34       75.03    
        74.72       74.42       74.12       73.82       73.54       73.26       72.98       72.72       72.46       72.22    
        71.98       71.75       71.52       71.30       71.08       70.86       70.64       70.43       70.21       70.00    
  32    84.20       84.17       84.10       84.00       83.87       83.71       83.51       83.29       83.03       82.74    
        82.42       82.07       81.69       81.28       80.85       80.39       79.94       79.50       79.07       78.66    
        78.27       77.88       77.51       77.15       76.80       76.46       76.12       75.79       75.47       75.16    
        74.84       74.54       74.24       73.94       73.65       73.37       73.09       72.82       72.56       72.31    
        72.06       71.82       71.58       71.35       71.12       70.90       70.67       70.45       70.22       70.00    
  33    84.27       84.24       84.18       84.08       83.95       83.79       83.60       83.38       83.13       82.85    
        82.53       82.19       81.82       81.42       80.99       80.53       80.09       79.65       79.23       78.82    
        78.42       78.04       77.66       77.30       76.94       76.60       76.26       75.92       75.60       75.28    
        74.96       74.65       74.35       74.05       73.76       73.47       73.19       72.92       72.65       72.39    
        72.14       71.89       71.64       71.40       71.17       70.93       70.70       70.46       70.23       70.00    
  34    84.34       84.31       84.25       84.16       84.03       83.87       83.69       83.47       83.22       82.94    
        82.64       82.30       81.93       81.54       81.12       80.67       80.23       79.80       79.38       78.97    
        78.57       78.18       77.80       77.43       77.08       76.72       76.38       76.05       75.72       75.39    
        75.07       74.76       74.45       74.15       73.86       73.57       73.28       73.01       72.73       72.47    
        72.21       71.95       71.70       71.45       71.21       70.96       70.72       70.48       70.24       70.00    
  35    84.41       84.38       84.32       84.23       84.10       83.95       83.77       83.55       83.31       83.04    
        82.73       82.40       82.04       81.65       81.23       80.79       80.35       79.92       79.50       79.10    
        78.70       78.31       77.93       77.56       77.20       76.84       76.50       76.16       75.83       75.50    
        75.18       74.86       74.55       74.25       73.95       73.66       73.37       73.09       72.81       72.54    
        72.27       72.01       71.75       71.50       71.24       70.99       70.74       70.50       70.25       70.00    
  36    84.47       84.44       84.38       84.29       84.17       84.02       83.84       83.63       83.39       83.12    
        82.82       82.49       82.14       81.75       81.34       80.90       80.46       80.04       79.62       79.22    
        78.82       78.43       78.05       77.68       77.31       76.96       76.61       76.26       75.93       75.60    
        75.27       74.96       74.64       74.34       74.03       73.74       73.45       73.16       72.88       72.60    
        72.33       72.06       71.80       71.54       71.28       71.02       70.76       70.51       70.26       70.00    
  37    84.53       84.50       84.44       84.35       84.23       84.08       83.90       83.69       83.46       83.19    
        82.90       82.58       82.23       81.85       81.44       81.00       80.57       80.14       79.73       79.32    
        78.93       78.54       78.15       77.78       77.42       77.06       76.71       76.36       76.02       75.69    
        75.36       75.04       74.73       74.42       74.11       73.81       73.52       73.23       72.94       72.66    
        72.38       72.11       71.84       71.57       71.31       71.05       70.78       70.52       70.26       70.00    
  38    84.58       84.55       84.49       84.40       84.28       84.14       83.96       83.75       83.52       83.26    
        82.97       82.65       82.30       81.93       81.52       81.09       80.66       80.24       79.82       79.42    
        79.02       78.63       78.25       77.88       77.51       77.15       76.80       76.45       76.11       75.78    
        75.45       75.12       74.80       74.49       74.18       73.88       73.58       73.29       73.00       72.71    
        72.43       72.16       71.88       71.61       71.34       71.07       70.80       70.53       70.27       70.00    
  39    84.63       84.60       84.54       84.45       84.33       84.18       84.01       83.81       83.58       83.32    
        83.03       82.72       82.37       82.00       81.60       81.16       80.74       80.32       79.91       79.51    
        79.11       78.72       78.34       77.96       77.60       77.24       76.88       76.53       76.19       75.85    
        75.52       75.20       74.87       74.56       74.25       73.94       73.64       73.34       73.05       72.76    
        72.48       72.20       71.92       71.64       71.36       71.09       70.82       70.55       70.27       70.00    
  40    84.67       84.64       84.58       84.49       84.37       84.22       84.05       83.85       83.62       83.37    
        83.08       82.77       82.43       82.06       81.66       81.23       80.81       80.40       79.99       79.58    
        79.19       78.80       78.42       78.04       77.67       77.31       76.96       76.61       76.26       75.92    
        75.59       75.26       74.94       74.62       74.31       74.00       73.70       73.40       73.10       72.81    
        72.52       72.23       71.95       71.67       71.39       71.11       70.83       70.55       70.28       70.00    
  41  -1000.0       84.67       84.61       84.52       84.40       84.25       84.08       83.89       83.66       83.41    
        83.13       82.82       82.48       82.12       81.72       81.30       80.87       80.46       80.05       79.65    
        79.26       78.87       78.49       78.11       77.74       77.38       77.02       76.67       76.33       75.99    
        75.65       75.32       75.00       74.68       74.36       74.05       73.74       73.44       73.14       72.85    
        72.55       72.26       71.98       71.69       71.41       71.13       70.84       70.56       70.28       70.00    
  42  -1000.0     -1000.0       84.64       84.54       84.42       84.28       84.11       83.91       83.69       83.44    
        83.16       82.86       82.53       82.16       81.77       81.35       80.93       80.52       80.11       79.71    
        79.32       78.93       78.55       78.18       77.81       77.44       77.08       76.73       76.38       76.04    
        75.71       75.38       75.05       74.73       74.41       74.10       73.79       73.48       73.18       72.88    
        72.59       72.29       72.00       71.71       71.43       71.14       70.86       70.57       70.29       70.00    
  43  -1000.0     -1000.0     -1000.0       84.55       84.43       84.29       84.12       83.93       83.71       83.46    
        83.19       82.89       82.56       82.20       81.81       81.39       80.98       80.57       80.16       79.77    
        79.37       78.99       78.60       78.23       77.86       77.50       77.14       76.78       76.44       76.09    
        75.76       75.42       75.09       74.77       74.45       74.14       73.82       73.52       73.21       72.91    
        72.61       72.32       72.03       71.73       71.44       71.15       70.87       70.58       70.29       70.00    
  44  -1000.0     -1000.0     -1000.0     -1000.0       84.43       84.29       84.12       83.93       83.72       83.48    
        83.21       82.91       82.59       82.23       81.84       81.43       81.02       80.61       80.21       79.81    
        79.42       79.03       78.65       78.28       77.91       77.54       77.18       76.83       76.48       76.14    
        75.80       75.46       75.13       74.81       74.49       74.17       73.86       73.55       73.24       72.94    
        72.64       72.34       72.05       71.75       71.46       71.17       70.87       70.58       70.29       70.00    
  45  -1000.0     -1000.0     -1000.0     -1000.0     -1000.0       84.27       84.11       83.93       83.72       83.48    
        83.22       82.92       82.60       82.25       81.87       81.46       81.05       80.64       80.24       79.85    
        79.46       79.07       78.69       78.32       77.95       77.58       77.22       76.87       76.52       76.17    
        75.83       75.50       75.17       74.84       74.52       74.20       73.89       73.57       73.27       72.96    
        72.66       72.36       72.06       71.77       71.47       71.18       70.88       70.59       70.29       70.00    
  46  -1000.0     -1000.0     -1000.0     -1000.0     -1000.0     -1000.0       84.09       83.91       83.70       83.47    
        83.22       82.93       82.61       82.27       81.89       81.48       81.07       80.67       80.27       79.88    
        79.49       79.10       78.72       78.35       77.98       77.61       77.25       76.90       76.55       76.20    
        75.86       75.53       75.20       74.87       74.54       74.22       73.91       73.60       73.29       72.98    
        72.68       72.38       72.08       71.78       71.48       71.18       70.89       70.59       70.30       70.00    
  47  -1000.0     -1000.0     -1000.0     -1000.0     -1000.0     -1000.0     -1000.0       83.88       83.68       83.46    
        83.21       82.93       82.62       82.28       81.90       81.50       81.09       80.69       80.29       79.90    
        79.51       79.13       78.75       78.37       78.00       77.64       77.28       76.92       76.57       76.23    
        75.89       75.55       75.22       74.89       74.56       74.24       73.93       73.61       73.30       73.00    
        72.69       72.39       72.09       71.79       71.49       71.19       70.89       70.60       70.30       70.00    
  48  -1000.0     -1000.0     -1000.0     -1000.0     -1000.0     -1000.0     -1000.0     -1000.0       83.65       83.43    
        83.19       82.92       82.62       82.28       81.91       81.51       81.11       80.71       80.31       79.92    
        79.53       79.15       78.77       78.39       78.02       77.66       77.30       76.94       76.59       76.25    
        75.90       75.57       75.23       74.91       74.58       74.26       73.94       73.63       73.32       73.01    
        72.70       72.40       72.09       71.79       71.49       71.20       70.90       70.60       70.30       70.00    
  49  -1000.0     -1000.0     -1000.0     -1000.0     -1000.0     -1000.0     -1000.0     -1000.0     -1000.0       83.39    
        83.16       82.91       82.61       82.28       81.92       81.51       81.11       80.72       80.32       79.93    
        79.54       79.16       78.78       78.41       78.04       77.67       77.31       76.96       76.60       76.26    
        75.92       75.58       75.25       74.92       74.59       74.27       73.95       73.64       73.32       73.01    
        72.71       72.40       72.10       71.80       71.50       71.20       70.90       70.60       70.30       70.00    
  50  -1000.0     -1000.0     -1000.0     -1000.0     -1000.0     -1000.0     -1000.0     -1000.0     -1000.0     -1000.0    
        83.12       82.89       82.61       82.28       81.92       81.52       81.12       80.72       80.33       79.94    
        79.55       79.17       78.79       78.41       78.04       77.68       77.32       76.96       76.61       76.26    
        75.92       75.58       75.25       74.92       74.60       74.27       73.96       73.64       73.33       73.02    
        72.71       72.41       72.10       71.80       71.50       71.20       70.90       70.60       70.30       70.00    

 HEAD WILL BE SAVED ON UNIT   51 AT END OF TIME STEP    1, STRESS PERIOD    1

 DRAWDOWN WILL BE SAVED ON UNIT   52 AT END OF TIME STEP    1, STRESS PERIOD    1
1
  VOLUMETRIC BUDGET FOR ENTIRE MODEL AT END OF TIME STEP    1, STRESS PERIOD   1
  ------------------------------------------------------------------------------

     CUMULATIVE VOLUMES      L**3       RATES FOR THIS TIME STEP      L**3/T
     ------------------                 ------------------------

           IN:                                      IN:
           ---                                      ---
             STORAGE =           0.0000               STORAGE =           0.0000
       CONSTANT HEAD =           0.0000         CONSTANT HEAD =           0.0000
               WELLS =           0.0000                 WELLS =           0.0000
                  ET =           0.0000                    ET =           0.0000
            RECHARGE =     1911600.0000              RECHARGE =       10620.0000
      STREAM LEAKAGE =         165.5348        STREAM LEAKAGE =           0.9196

            TOTAL IN =     1911765.5000              TOTAL IN =       10620.9199

          OUT:                                     OUT:
          ----                                     ----
             STORAGE =           0.0000               STORAGE =           0.0000
       CONSTANT HEAD =      659882.3125         CONSTANT HEAD =        3666.0129
               WELLS =     1251536.0000                 WELLS =        6952.9775
                  ET =         331.3835                    ET =           1.8410
            RECHARGE =           0.0000              RECHARGE =           0.0000
      STREAM LEAKAGE =          15.9086        STREAM LEAKAGE =       8.8381E-02

           TOTAL OUT =     1911765.5000             TOTAL OUT =       10620.9199

            IN - OUT =           0.0000              IN - OUT =           0.0000

 PERCENT DISCREPANCY =           0.00     PERCENT DISCREPANCY =           0.00






         TIME SUMMARY AT END OF TIME STEP    1 IN STRESS PERIOD    1
                    SECONDS     MINUTES      HOURS       DAYS        YEARS
                    -----------------------------------------------------------
   TIME STEP LENGTH 1.55520E+07 2.59200E+05  4320.0      180.00     0.49281    
 STRESS PERIOD TIME 1.55520E+07 2.59200E+05  4320.0      180.00     0.49281    
         TOTAL TIME 1.55520E+07 2.59200E+05  4320.0      180.00     0.49281    
1

 Run end date and time (yyyy/mm/dd hh:mm:ss): 2023/06/12 19:36:49
 Elapsed run time:  0.224 Seconds

