                                  MODFLOW-2005     
      U.S. GEOLOGICAL SURVEY MODULAR FINITE-DIFFERENCE GROUND-WATER FLOW MODEL
                            VERSION 1.12.00 2/3/2017

 LIST FILE: BASE.list
                         UNIT    2

 OPENING BASE.dis
 FILE TYPE:DIS   UNIT   11   STATUS:OLD    
 FORMAT:FORMATTED              ACCESS:SEQUENTIAL          

 OPENING BASE.bas
 FILE TYPE:BAS6   UNIT   13   STATUS:OLD    
 FORMAT:FORMATTED              ACCESS:SEQUENTIAL          

 OPENING BASE.lpf
 FILE TYPE:LPF   UNIT   15   STATUS:OLD    
 FORMAT:FORMATTED              ACCESS:SEQUENTIAL          

 OPENING BASE.oc
 FILE TYPE:OC   UNIT   14   STATUS:OLD    
 FORMAT:FORMATTED              ACCESS:SEQUENTIAL          

 OPENING BASE.pcg
 FILE TYPE:PCG   UNIT   27   STATUS:OLD    
 FORMAT:FORMATTED              ACCESS:SEQUENTIAL          

 OPENING BASE.rch
 FILE TYPE:RCH   UNIT   19   STATUS:OLD    
 FORMAT:FORMATTED              ACCESS:SEQUENTIAL          

 OPENING BASE.evt
 FILE TYPE:EVT   UNIT   22   STATUS:OLD    
 FORMAT:FORMATTED              ACCESS:SEQUENTIAL          

 OPENING BASE.wel
 FILE TYPE:WEL   UNIT   20   STATUS:OLD    
 FORMAT:FORMATTED              ACCESS:SEQUENTIAL          

 OPENING BASE.str
 FILE TYPE:STR   UNIT  118   STATUS:OLD    
 FORMAT:FORMATTED              ACCESS:SEQUENTIAL          

 OPENING BASE.cbc
 FILE TYPE:DATA(BINARY)   UNIT   53   STATUS:REPLACE
 FORMAT:BINARY                 ACCESS:SEQUENTIAL          

 OPENING BASE.hds
 FILE TYPE:DATA(BINARY)   UNIT   51   STATUS:REPLACE
 FORMAT:BINARY                 ACCESS:SEQUENTIAL          

 OPENING BASE.ddn
 FILE TYPE:DATA(BINARY)   UNIT   52   STATUS:REPLACE
 FORMAT:BINARY                 ACCESS:SEQUENTIAL          

 BAS -- BASIC PACKAGE, VERSION 7, 5/2/2005 INPUT READ FROM UNIT   13
 
 MODFLOW was compiled using mixed precision
 Precision of REAL variables:           6
 Precision of DOUBLE PRECISION variables:          15

 DISCRETIZATION INPUT DATA READ FROM UNIT   11
 # DIS package for  MODFLOW-2005, generated by Flopy.
    3 LAYERS        50 ROWS        50 COLUMNS
    1 STRESS PERIOD(S) IN SIMULATION
 MODEL TIME UNIT IS DAYS
 MODEL LENGTH UNIT IS METERS
  Confining bed flag for each layer:
   0   0   0

                     DELR =   1000.00    

                     DELC =   1000.00    



           TOP ELEVATION OF LAYER 1
 READING ON UNIT   11 WITH FORMAT: (50E15.6)           



             MODEL LAYER BOTTOM EL. FOR LAYER   1
 READING ON UNIT   11 WITH FORMAT: (50E15.6)           



             MODEL LAYER BOTTOM EL. FOR LAYER   2
 READING ON UNIT   11 WITH FORMAT: (50E15.6)           



             MODEL LAYER BOTTOM EL. FOR LAYER   3
 READING ON UNIT   11 WITH FORMAT: (50E15.6)           


 STRESS PERIOD     LENGTH       TIME STEPS     MULTIPLIER FOR DELT    SS FLAG
 ----------------------------------------------------------------------------
        1         180.0000          1                    1.000         SS

 STEADY-STATE SIMULATION



 
 # BAS6 package for  MODFLOW-2005, generated by Flopy.                           
 THE FREE FORMAT OPTION HAS BEEN SELECTED



                     BOUNDARY ARRAY FOR LAYER   1
 READING ON UNIT   13 WITH FORMAT: (50I10)             



                     BOUNDARY ARRAY FOR LAYER   2
 READING ON UNIT   13 WITH FORMAT: (50I10)             



                     BOUNDARY ARRAY FOR LAYER   3
 READING ON UNIT   13 WITH FORMAT: (50I10)             

 AQUIFER HEAD WILL BE SET TO  -999.99     AT ALL NO-FLOW NODES (IBOUND=0).



                       INITIAL HEAD FOR LAYER   1
 READING ON UNIT   13 WITH FORMAT: (50E15.6)           



                       INITIAL HEAD FOR LAYER   2
 READING ON UNIT   13 WITH FORMAT: (50E15.6)           



                       INITIAL HEAD FOR LAYER   3
 READING ON UNIT   13 WITH FORMAT: (50E15.6)           
 # OC package for  MODFLOW-2005, generated by Flopy.

 OUTPUT CONTROL IS SPECIFIED ONLY AT TIME STEPS FOR WHICH OUTPUT IS DESIRED
 COMPACT CELL-BY-CELL BUDGET FILES WILL BE WRITTEN
 AUXILIARY DATA WILL BE SAVED IN CELL-BY-CELL BUDGET FILES
 HEAD PRINT FORMAT CODE IS   0    DRAWDOWN PRINT FORMAT CODE IS   0
 HEADS WILL BE SAVED ON UNIT   51    DRAWDOWNS WILL BE SAVED ON UNIT   52

 LPF -- LAYER-PROPERTY FLOW PACKAGE, VERSION 7, 5/2/2005
         INPUT READ FROM UNIT   15
 # LPF package for  MODFLOW-2005, generated by Flopy.
 CELL-BY-CELL FLOWS WILL BE SAVED ON UNIT   53
 HEAD AT CELLS THAT CONVERT TO DRY= -1.00000E+30
 No named parameters

   LAYER FLAGS:
 LAYER       LAYTYP        LAYAVG         CHANI        LAYVKA        LAYWET
 ---------------------------------------------------------------------------
    1             1             0     0.000E+00             0             0
    2             1             0     0.000E+00             0             0
    3             1             0     0.000E+00             0             0

   INTERPRETATION OF LAYER FLAGS:
                        INTERBLOCK     HORIZONTAL    DATA IN
         LAYER TYPE   TRANSMISSIVITY   ANISOTROPY   ARRAY VKA   WETTABILITY
 LAYER      (LAYTYP)      (LAYAVG)       (CHANI)      (LAYVKA)      (LAYWET)
 ---------------------------------------------------------------------------
    1   CONVERTIBLE      HARMONIC      VARIABLE    VERTICAL K  NON-WETTABLE
    2   CONVERTIBLE      HARMONIC      VARIABLE    VERTICAL K  NON-WETTABLE
    3   CONVERTIBLE      HARMONIC      VARIABLE    VERTICAL K  NON-WETTABLE

 WETTING CAPABILITY IS NOT ACTIVE IN ANY LAYER

    HYD. COND. ALONG ROWS =   8.00000     FOR LAYER   1

   HORIZ. ANI. (COL./ROW) =   1.00000     FOR LAYER   1



                VERTICAL HYD. COND. FOR LAYER   1
 READING ON UNIT   15 WITH FORMAT: (50E15.6)           

    HYD. COND. ALONG ROWS =   8.00000     FOR LAYER   2

   HORIZ. ANI. (COL./ROW) =   1.00000     FOR LAYER   2



                VERTICAL HYD. COND. FOR LAYER   2
 READING ON UNIT   15 WITH FORMAT: (50E15.6)           

    HYD. COND. ALONG ROWS =   8.00000     FOR LAYER   3

   HORIZ. ANI. (COL./ROW) =   1.00000     FOR LAYER   3



                VERTICAL HYD. COND. FOR LAYER   3
 READING ON UNIT   15 WITH FORMAT: (50E15.6)           

 WEL -- WELL PACKAGE, VERSION 7, 5/2/2005 INPUT READ FROM UNIT   20
 # WEL package for  MODFLOW-2005, generated by Flopy.
 No named parameters
 MAXIMUM OF      2 ACTIVE WELLS AT ONE TIME


     0 Well parameters

 EVT -- EVAPOTRANSPIRATION PACKAGE, VERSION 7, 5/2/2005
         INPUT READ FROM UNIT   22
 # EVT package for  MODFLOW-2005, generated by Flopy.
 No named parameters
 OPTION 3 -- EVAPOTRANSPIRATION FROM HIGHEST ACTIVE NODE IN EACH VERTICAL COLUMN
 CELL-BY-CELL FLOWS WILL BE SAVED ON UNIT   53


     0 Evapotranspiration parameters

 RCH -- RECHARGE PACKAGE, VERSION 7, 5/2/2005 INPUT READ FROM UNIT   19
 # RCH package for  MODFLOW-2005, generated by Flopy.
 No named parameters
 OPTION 3 -- RECHARGE TO HIGHEST ACTIVE NODE IN EACH VERTICAL COLUMN


     0 Recharge parameters

 STR -- STREAM PACKAGE, VERSION 7, 5/2/2005 INPUT READ FROM UNIT  118
 # STR package for  MODFLOW-2005, generated by Flopy.
 No named parameters
 MAXIMUM OF     49 ACTIVE STREAM NODES AT ONE TIME
 NUMBER OF STREAM SEGMENTS IS      3
 NUMBER OF STREAM TRIBUTARIES IS      2
 STREAM STAGES WILL BE CALCULATED USING A CONSTANT OF 86400.0000
 CELL BUDGETS WILL BE SAVED ON UNITS   53 AND   53


     0 Stream parameters

 PCG -- CONJUGATE-GRADIENT SOLUTION PACKAGE, VERSION 7, 5/2/2005
 # PCG package for  MODFLOW-2005, generated by Flopy.
 MAXIMUM OF     50 CALLS OF SOLUTION ROUTINE
 MAXIMUM OF     30 INTERNAL ITERATIONS PER CALL TO SOLUTION ROUTINE
 MATRIX PRECONDITIONING TYPE :    1



                                    SOLUTION BY THE CONJUGATE-GRADIENT METHOD
                                   -------------------------------------------
                    MAXIMUM NUMBER OF CALLS TO PCG ROUTINE =       50
                        MAXIMUM ITERATIONS PER CALL TO PCG =       30
                               MATRIX PRECONDITIONING TYPE =        1
        RELAXATION FACTOR (ONLY USED WITH PRECOND. TYPE 1) =    0.10000E+01
 PARAMETER OF POLYNOMIAL PRECOND. = 2 (2) OR IS CALCULATED :        0
                         HEAD CHANGE CRITERION FOR CLOSURE =    0.10000E-04
                     RESIDUAL CHANGE CRITERION FOR CLOSURE =    0.10000E-04
            PCG HEAD AND RESIDUAL CHANGE PRINTOUT INTERVAL =      999
     PRINTING FROM SOLVER IS LIMITED(1) OR SUPPRESSED (>1) =        3
                            STEADY-STATE DAMPING PARAMETER =    0.10000E+01
                               TRANSIENT DAMPING PARAMETER =    0.10000E+01
1
                            STRESS PERIOD NO.    1, LENGTH =   180.0000    
                            -----------------------------------------------

                              NUMBER OF TIME STEPS =     1

                               MULTIPLIER FOR DELT =     1.000

                            INITIAL TIME STEP SIZE =   180.0000    

 WELL NO.  LAYER   ROW   COL   STRESS RATE         
 --------------------------------------------------
      1      3     21     38      -1810.    
      2      1     19     19      -5143.    

      2 WELLS



                         ET SURFACE
 READING ON UNIT   22 WITH FORMAT: (50E15.6)           



            EVAPOTRANSPIRATION RATE
 READING ON UNIT   22 WITH FORMAT: (50E15.6)           



                   EXTINCTION DEPTH
 READING ON UNIT   22 WITH FORMAT: (50E15.6)           



                           RECHARGE
 READING ON UNIT   19 WITH FORMAT: (50E15.6)           

     49 STREAM REACHES
 
 SOLVING FOR HEAD 

 OUTPUT CONTROL FOR STRESS PERIOD    1   TIME STEP    1
    SAVE HEAD FOR ALL LAYERS
    SAVE DRAWDOWN FOR ALL LAYERS
    SAVE BUDGET
    PRINT HEAD FOR ALL LAYERS
    PRINT BUDGET
 UBDSV2 SAVING "   CONSTANT HEAD" ON UNIT  53 AT TIME STEP  1, STRESS PERIOD   1
 UBDSV1 SAVING "FLOW RIGHT FACE " ON UNIT  53 AT TIME STEP  1, STRESS PERIOD   1
 UBDSV1 SAVING "FLOW FRONT FACE " ON UNIT  53 AT TIME STEP  1, STRESS PERIOD   1
 UBDSV1 SAVING "FLOW LOWER FACE " ON UNIT  53 AT TIME STEP  1, STRESS PERIOD   1
 UBDSV3 SAVING "              ET" ON UNIT  53 AT TIME STEP  1, STRESS PERIOD   1
 UBDSV4 SAVING "  STREAM LEAKAGE" ON UNIT  53 AT TIME STEP  1, STRESS PERIOD   1
 UBDSV4 SAVING "STREAM FLOW OUT " ON UNIT  53 AT TIME STEP  1, STRESS PERIOD   1
1
              HEAD IN LAYER   1 AT END OF TIME STEP   1 IN STRESS PERIOD    1
  ---------------------------------------------------------------------------

            1           2           3           4           5           6           7           8           9          10
           11          12          13          14          15          16          17          18          19          20
           21          22          23          24          25          26          27          28          29          30
           31          32          33          34          35          36          37          38          39          40
           41          42          43          44          45          46          47          48          49          50
 ........................................................................................................................
   1  -1000.0     -1000.0     -1000.0     -1000.0     -1000.0     -1000.0       79.01       78.90       78.73       78.52    
        78.29       78.11       77.90       77.65       77.38       77.08       76.79       76.50       76.22       75.95    
        75.69       75.43       75.18       74.93       74.69       74.46       74.23       74.01       73.79       73.58    
        73.38       73.17       72.97       72.78       72.59       72.40       72.22       72.03       71.85       71.68    
        71.50       71.33       71.16       70.99       70.83       70.66       70.50       70.33       70.17       70.00    
   2  -1000.0     -1000.0     -1000.0     -1000.0     -1000.0       79.17       79.06       78.91       78.72       78.50    
        78.32       78.12       77.90       77.65       77.38       77.08       76.79       76.50       76.22       75.94    
        75.68       75.42       75.17       74.92       74.69       74.45       74.23       74.00       73.79       73.58    
        73.37       73.17       72.97       72.78       72.58       72.40       72.21       72.03       71.85       71.68    
        71.50       71.33       71.16       70.99       70.83       70.66       70.50       70.33       70.17       70.00    
   3  -1000.0     -1000.0     -1000.0     -1000.0       79.34       79.23       79.08       78.91       78.71       78.53    
        78.34       78.13       77.90       77.65       77.37       77.07       76.77       76.48       76.20       75.93    
        75.66       75.40       75.15       74.91       74.67       74.44       74.21       73.99       73.78       73.57    
        73.36       73.16       72.96       72.77       72.58       72.39       72.21       72.02       71.85       71.67    
        71.50       71.33       71.16       70.99       70.82       70.66       70.49       70.33       70.16       70.00    
   4  -1000.0     -1000.0     -1000.0       79.50       79.39       79.26       79.10       78.90       78.74       78.56    
        78.36       78.14       77.90       77.64       77.36       77.05       76.75       76.46       76.18       75.90    
        75.64       75.38       75.13       74.89       74.65       74.42       74.19       73.98       73.76       73.55    
        73.35       73.15       72.95       72.76       72.57       72.38       72.20       72.02       71.84       71.66    
        71.49       71.32       71.15       70.98       70.82       70.65       70.49       70.33       70.16       70.00    
   5  -1000.0     -1000.0       79.64       79.54       79.42       79.27       79.09       78.94       78.77       78.58    
        78.37       78.14       77.89       77.63       77.34       77.03       76.73       76.43       76.15       75.87    
        75.60       75.35       75.10       74.86       74.62       74.39       74.17       73.95       73.74       73.53    
        73.33       73.13       72.93       72.74       72.55       72.37       72.18       72.00       71.83       71.65    
        71.48       71.31       71.14       70.98       70.81       70.65       70.49       70.33       70.16       70.00    
   6  -1000.0       79.75       79.67       79.56       79.43       79.26       79.12       78.96       78.78       78.59    
        78.37       78.14       77.88       77.61       77.31       77.00       76.69       76.39       76.10       75.83    
        75.56       75.30       75.06       74.82       74.58       74.36       74.14       73.92       73.71       73.51    
        73.31       73.11       72.91       72.72       72.53       72.35       72.17       71.99       71.81       71.64    
        71.47       71.30       71.13       70.97       70.81       70.64       70.48       70.32       70.16       70.00    
   7    79.82       79.77       79.68       79.57       79.42       79.29       79.14       78.98       78.79       78.59    
        78.37       78.12       77.86       77.58       77.28       76.96       76.64       76.34       76.05       75.77    
        75.51       75.25       75.01       74.77       74.54       74.32       74.10       73.89       73.68       73.48    
        73.28       73.08       72.89       72.70       72.51       72.33       72.15       71.97       71.80       71.62    
        71.45       71.29       71.12       70.96       70.80       70.64       70.48       70.32       70.16       70.00    
   8    79.81       79.76       79.68       79.55       79.44       79.31       79.16       78.99       78.80       78.59    
        78.36       78.11       77.83       77.54       77.23       76.90       76.59       76.28       75.99       75.71    
        75.44       75.19       74.95       74.71       74.49       74.27       74.06       73.85       73.65       73.45    
        73.25       73.05       72.86       72.67       72.49       72.31       72.13       71.95       71.78       71.61    
        71.44       71.27       71.11       70.95       70.79       70.63       70.47       70.32       70.16       70.00    
   9    79.80       79.75       79.66       79.57       79.45       79.32       79.17       78.99       78.80       78.58    
        78.34       78.08       77.80       77.50       77.18       76.84       76.52       76.21       75.91       75.63    
        75.36       75.12       74.88       74.65       74.43       74.22       74.01       73.81       73.61       73.41    
        73.21       73.02       72.83       72.65       72.46       72.28       72.10       71.93       71.75       71.59    
        71.42       71.26       71.09       70.93       70.78       70.62       70.47       70.31       70.16       70.00    
  10    79.78       79.73       79.67       79.58       79.47       79.33       79.17       78.99       78.79       78.57    
        78.32       78.05       77.75       77.44       77.11       76.77       76.43       76.11       75.81       75.53    
        75.27       75.03       74.80       74.58       74.36       74.16       73.96       73.76       73.56       73.37    
        73.18       72.99       72.80       72.62       72.43       72.25       72.08       71.90       71.73       71.56    
        71.40       71.24       71.08       70.92       70.77       70.61       70.46       70.31       70.15       70.00    
  11    79.77       79.73       79.67       79.58       79.47       79.34       79.18       78.99       78.78       78.55    
        78.29       78.01       77.70       77.38       77.03       76.67       76.33       76.00       75.70       75.42    
        75.16       74.92       74.70       74.49       74.29       74.09       73.90       73.71       73.52       73.33    
        73.14       72.95       72.77       72.58       72.40       72.22       72.05       71.87       71.70       71.54    
        71.38       71.22       71.06       70.91       70.75       70.60       70.45       70.30       70.15       70.00    
  12    79.77       79.74       79.68       79.59       79.48       79.34       79.18       78.99       78.77       78.53    
        78.26       77.96       77.65       77.30       76.94       76.57       76.21       75.87       75.56       75.28    
        75.03       74.81       74.60       74.40       74.21       74.02       73.84       73.66       73.47       73.29    
        73.10       72.92       72.73       72.55       72.37       72.19       72.02       71.84       71.68       71.51    
        71.35       71.19       71.04       70.89       70.74       70.59       70.44       70.30       70.15       70.00    
  13    79.77       79.74       79.69       79.60       79.49       79.34       79.18       78.98       78.76       78.50    
        78.22       77.92       77.58       77.22       76.84       76.44       76.06       75.71       75.39       75.11    
        74.88       74.67       74.48       74.30       74.12       73.95       73.78       73.60       73.43       73.25    
        73.07       72.88       72.70       72.52       72.34       72.16       71.98       71.81       71.65       71.48    
        71.33       71.17       71.02       70.87       70.72       70.58       70.43       70.29       70.15       70.00    
  14    79.78       79.75       79.70       79.61       79.49       79.35       79.18       78.98       78.75       78.48    
        78.19       77.87       77.52       77.13       76.73       76.30       75.89       75.51       75.18       74.91    
        74.69       74.51       74.35       74.19       74.04       73.88       73.72       73.56       73.39       73.21    
        73.03       72.85       72.67       72.49       72.31       72.13       71.95       71.78       71.61       71.45    
        71.30       71.15       71.00       70.85       70.71       70.57       70.43       70.28       70.14       70.00    
  15    79.80       79.77       79.71       79.62       79.50       79.36       79.18       78.98       78.74       78.47    
        78.16       77.83       77.45       77.04       76.60       76.13       75.68       75.26       74.91       74.65    
        74.47       74.33       74.21       74.08       73.95       73.81       73.67       73.51       73.35       73.18    
        73.00       72.82       72.64       72.46       72.27       72.09       71.92       71.75       71.58       71.42    
        71.27       71.12       70.98       70.84       70.70       70.56       70.42       70.28       70.14       70.00    
  16    79.81       79.78       79.72       79.64       79.52       79.37       79.19       78.98       78.74       78.46    
        78.14       77.79       77.39       76.96       76.47       75.95       75.42       74.93       74.54       74.32    
        74.21       74.14       74.07       73.98       73.88       73.76       73.62       73.48       73.32       73.15    
        72.98       72.80       72.62       72.43       72.25       72.06       71.89       71.72       71.55       71.40    
        71.25       71.10       70.96       70.82       70.69       70.55       70.41       70.28       70.14       70.00    
  17    79.83       79.80       79.75       79.66       79.54       79.39       79.20       78.99       78.74       78.46    
        78.13       77.76       77.35       76.88       76.36       75.76       75.14       74.50       73.99       73.89    
        73.92       73.94       73.94       73.89       73.82       73.72       73.59       73.45       73.30       73.14    
        72.96       72.78       72.60       72.41       72.22       72.04       71.86       71.69       71.52       71.37    
        71.22       71.08       70.94       70.81       70.68       70.54       70.41       70.27       70.14       70.00    
  18    79.86       79.83       79.77       79.68       79.56       79.41       79.23       79.01       78.76       78.47    
        78.14       77.76       77.33       76.84       76.28       75.61       74.84       73.94       73.03       73.32    
        73.62       73.78       73.84       73.84       73.79       73.70       73.58       73.45       73.30       73.13    
        72.96       72.78       72.59       72.40       72.21       72.02       71.83       71.66       71.50       71.35    
        71.20       71.07       70.93       70.80       70.67       70.54       70.40       70.27       70.14       70.00    
  19    79.89       79.86       79.80       79.71       79.59       79.44       79.25       79.03       78.78       78.49    
        78.16       77.78       77.34       76.84       76.26       75.56       74.67       73.38       70.82       72.75    
        73.44       73.72       73.82       73.83       73.79       73.70       73.59       73.46       73.31       73.14    
        72.97       72.78       72.59       72.40       72.20       72.01       71.82       71.64       71.48       71.33    
        71.19       71.06       70.93       70.80       70.67       70.53       70.40       70.27       70.14       70.00    
  20    79.92       79.89       79.83       79.74       79.62       79.47       79.29       79.07       78.82       78.53    
        78.20       77.82       77.39       76.90       76.34       75.67       74.90       74.00       73.09       73.38    
        73.67       73.83       73.90       73.89       73.83       73.74       73.62       73.49       73.33       73.17    
        72.99       72.80       72.61       72.41       72.21       72.01       71.81       71.63       71.47       71.33    
        71.19       71.06       70.93       70.80       70.67       70.54       70.41       70.27       70.14       70.00    
  21    79.96       79.93       79.87       79.78       79.66       79.51       79.33       79.12       78.87       78.58    
        78.26       77.89       77.47       77.01       76.48       75.88       75.25       74.62       74.11       74.00    
        74.02       74.05       74.04       73.99       73.91       73.81       73.68       73.53       73.37       73.20    
        73.02       72.83       72.63       72.43       72.23       72.03       71.83       71.65       71.49       71.34    
        71.20       71.07       70.94       70.81       70.68       70.55       70.41       70.28       70.14       70.00    
  22    80.00       79.97       79.91       79.82       79.71       79.56       79.38       79.17       78.92       78.64    
        78.33       77.97       77.58       77.14       76.65       76.13       75.60       75.10       74.71       74.49    
        74.37       74.29       74.22       74.13       74.02       73.89       73.75       73.60       73.43       73.26    
        73.07       72.88       72.68       72.47       72.27       72.06       71.87       71.68       71.52       71.37    
        71.23       71.09       70.96       70.83       70.69       70.56       70.42       70.28       70.14       70.00    
  23    80.04       80.01       79.96       79.87       79.75       79.61       79.43       79.23       78.99       78.72    
        78.41       78.07       77.70       77.29       76.84       76.37       75.91       75.48       75.13       74.87    
        74.69       74.54       74.41       74.28       74.14       74.00       73.84       73.68       73.50       73.32    
        73.13       72.93       72.73       72.53       72.32       72.12       71.92       71.74       71.57       71.42    
        71.27       71.13       70.99       70.85       70.72       70.58       70.44       70.29       70.15       70.00    
  24    80.09       80.06       80.00       79.92       79.81       79.66       79.49       79.29       79.06       78.80    
        78.51       78.18       77.82       77.44       77.03       76.59       76.18       75.79       75.46       75.18    
        74.96       74.77       74.60       74.44       74.27       74.11       73.94       73.77       73.58       73.40    
        73.20       73.00       72.80       72.60       72.39       72.19       71.99       71.81       71.64       71.48    
        71.32       71.18       71.03       70.89       70.75       70.60       70.45       70.31       70.15       70.00    
  25    80.14       80.11       80.06       79.97       79.86       79.72       79.56       79.36       79.14       78.88    
        78.60       78.29       77.95       77.59       77.20       76.80       76.41       76.05       75.73       75.44    
        75.20       74.98       74.78       74.59       74.41       74.23       74.05       73.86       73.68       73.48    
        73.28       73.08       72.88       72.67       72.47       72.27       72.07       71.89       71.71       71.54    
        71.38       71.23       71.08       70.93       70.78       70.63       70.48       70.32       70.16       70.00    
  26    80.19       80.16       80.11       80.03       79.92       79.79       79.62       79.43       79.22       78.97    
        78.70       78.40       78.08       77.73       77.37       76.98       76.62       76.27       75.95       75.66    
        75.40       75.17       74.95       74.74       74.54       74.35       74.16       73.97       73.77       73.58    
        73.37       73.17       72.96       72.76       72.55       72.35       72.16       71.97       71.79       71.62    
        71.45       71.29       71.13       70.98       70.82       70.67       70.51       70.35       70.18       70.00    
  27    80.24       80.22       80.16       80.08       79.98       79.85       79.69       79.51       79.30       79.06    
        78.80       78.51       78.20       77.87       77.52       77.15       76.80       76.46       76.15       75.85    
        75.59       75.34       75.11       74.89       74.67       74.46       74.26       74.06       73.85       73.65    
        73.44       73.23       73.02       72.82       72.61       72.41       72.21       72.02       71.84       71.66    
        71.49       71.32       71.16       71.00       70.83       70.67       70.51       70.34       70.17       70.00    
  28    80.29       80.27       80.22       80.14       80.04       79.91       79.76       79.58       79.37       79.15    
        78.89       78.62       78.32       78.00       77.66       77.30       76.96       76.63       76.32       76.02    
        75.75       75.50       75.25       75.02       74.79       74.57       74.36       74.15       73.93       73.72    
        73.51       73.30       73.09       72.88       72.67       72.47       72.27       72.08       71.89       71.71    
        71.53       71.36       71.19       71.02       70.85       70.68       70.52       70.35       70.17       70.00    
  29    80.35       80.32       80.27       80.20       80.10       79.97       79.82       79.65       79.45       79.23    
        78.98       78.72       78.43       78.11       77.79       77.44       77.10       76.78       76.47       76.17    
        75.90       75.64       75.39       75.14       74.91       74.68       74.46       74.23       74.02       73.80    
        73.58       73.37       73.15       72.94       72.73       72.53       72.33       72.13       71.94       71.75    
        71.57       71.39       71.22       71.04       70.87       70.70       70.52       70.35       70.18       70.00    
  30    80.40       80.38       80.33       80.25       80.16       80.04       79.89       79.72       79.53       79.31    
        79.07       78.81       78.53       78.22       77.90       77.56       77.23       76.91       76.61       76.31    
        76.03       75.77       75.51       75.26       75.02       74.78       74.55       74.32       74.10       73.87    
        73.65       73.44       73.22       73.01       72.79       72.59       72.38       72.18       71.99       71.80    
        71.61       71.43       71.25       71.07       70.89       70.71       70.54       70.36       70.18       70.00    
  31    80.45       80.43       80.38       80.31       80.21       80.10       79.95       79.79       79.60       79.39    
        79.15       78.90       78.62       78.33       78.01       77.68       77.35       77.03       76.73       76.43    
        76.15       75.88       75.62       75.37       75.12       74.88       74.64       74.41       74.18       73.95    
        73.73       73.50       73.28       73.07       72.85       72.64       72.44       72.24       72.04       71.84    
        71.65       71.46       71.28       71.09       70.91       70.73       70.55       70.37       70.18       70.00    
  32    80.50       80.48       80.43       80.36       80.27       80.15       80.01       79.85       79.67       79.46    
        79.23       78.98       78.71       78.42       78.11       77.78       77.46       77.14       76.84       76.54    
        76.26       75.99       75.73       75.47       75.22       74.97       74.73       74.49       74.25       74.02    
        73.80       73.57       73.35       73.13       72.91       72.70       72.49       72.29       72.08       71.89    
        71.69       71.50       71.31       71.12       70.93       70.75       70.56       70.37       70.19       70.00    
  33    80.55       80.53       80.48       80.41       80.32       80.21       80.07       79.91       79.73       79.53    
        79.30       79.06       78.79       78.51       78.20       77.87       77.55       77.24       76.94       76.65    
        76.36       76.09       75.82       75.56       75.30       75.05       74.81       74.57       74.33       74.09    
        73.86       73.64       73.41       73.19       72.97       72.76       72.54       72.34       72.13       71.93    
        71.73       71.53       71.34       71.15       70.95       70.76       70.57       70.38       70.19       70.00    
  34    80.60       80.57       80.53       80.46       80.37       80.26       80.12       79.97       79.79       79.59    
        79.37       79.13       78.87       78.58       78.28       77.96       77.64       77.33       77.03       76.74    
        76.46       76.18       75.91       75.65       75.39       75.13       74.88       74.64       74.40       74.16    
        73.93       73.70       73.47       73.25       73.02       72.81       72.59       72.38       72.17       71.97    
        71.76       71.56       71.37       71.17       70.97       70.78       70.59       70.39       70.20       70.00    
  35    80.64       80.62       80.57       80.51       80.42       80.31       80.17       80.02       79.85       79.65    
        79.43       79.19       78.94       78.66       78.36       78.04       77.72       77.42       77.11       76.82    
        76.54       76.26       75.99       75.72       75.46       75.21       74.96       74.71       74.46       74.22    
        73.99       73.76       73.53       73.30       73.08       72.86       72.64       72.42       72.21       72.00    
        71.80       71.60       71.39       71.19       70.99       70.79       70.60       70.40       70.20       70.00    
  36    80.68       80.66       80.61       80.55       80.46       80.35       80.22       80.07       79.90       79.70    
        79.49       79.25       79.00       78.72       78.42       78.11       77.79       77.49       77.19       76.90    
        76.61       76.34       76.06       75.80       75.53       75.28       75.02       74.77       74.53       74.28    
        74.05       73.81       73.58       73.35       73.12       72.90       72.68       72.47       72.25       72.04    
        71.83       71.62       71.42       71.21       71.01       70.81       70.61       70.41       70.20       70.00    
  37    80.72       80.69       80.65       80.59       80.50       80.39       80.26       80.11       79.94       79.75    
        79.54       79.31       79.05       78.78       78.48       78.17       77.86       77.56       77.26       76.96    
        76.68       76.40       76.13       75.86       75.60       75.34       75.08       74.83       74.58       74.34    
        74.10       73.86       73.63       73.40       73.17       72.94       72.72       72.50       72.29       72.07    
        71.86       71.65       71.44       71.24       71.03       70.82       70.62       70.41       70.21       70.00    
  38    80.75       80.73       80.68       80.62       80.53       80.43       80.30       80.15       79.98       79.79    
        79.58       79.35       79.10       78.83       78.54       78.23       77.92       77.61       77.32       77.02    
        76.74       76.47       76.19       75.92       75.66       75.40       75.14       74.89       74.64       74.39    
        74.15       73.91       73.67       73.44       73.21       72.98       72.76       72.54       72.32       72.10    
        71.89       71.68       71.46       71.25       71.04       70.84       70.63       70.42       70.21       70.00    
  39    80.78       80.76       80.71       80.65       80.56       80.46       80.33       80.18       80.02       79.83    
        79.62       79.39       79.15       78.88       78.59       78.28       77.97       77.67       77.37       77.08    
        76.80       76.52       76.25       75.98       75.71       75.45       75.19       74.94       74.68       74.44    
        74.19       73.95       73.72       73.48       73.25       73.02       72.79       72.57       72.35       72.13    
        71.91       71.70       71.48       71.27       71.06       70.85       70.64       70.43       70.21       70.00    
  40    80.81       80.78       80.74       80.67       80.59       80.48       80.36       80.21       80.04       79.86    
        79.65       79.43       79.18       78.92       78.63       78.32       78.01       77.71       77.42       77.13    
        76.85       76.57       76.30       76.03       75.76       75.50       75.24       74.98       74.73       74.48    
        74.23       73.99       73.75       73.52       73.28       73.05       72.83       72.60       72.38       72.16    
        71.94       71.72       71.50       71.29       71.07       70.86       70.65       70.43       70.22       70.00    
  41    80.85       80.81       80.76       80.69       80.61       80.50       80.37       80.23       80.07       79.88    
        79.68       79.46       79.21       78.95       78.66       78.36       78.05       77.76       77.46       77.17    
        76.89       76.61       76.34       76.07       75.80       75.54       75.28       75.02       74.77       74.52    
        74.27       74.03       73.79       73.55       73.32       73.08       72.85       72.63       72.40       72.18    
        71.96       71.74       71.52       71.30       71.09       70.87       70.65       70.44       70.22       70.00    
  42    80.89       80.85       80.78       80.71       80.62       80.51       80.39       80.25       80.08       79.90    
        79.70       79.48       79.24       78.98       78.69       78.39       78.09       77.79       77.50       77.21    
        76.93       76.65       76.38       76.11       75.84       75.58       75.32       75.06       74.80       74.55    
        74.31       74.06       73.82       73.58       73.34       73.11       72.88       72.65       72.42       72.20    
        71.98       71.75       71.53       71.31       71.10       70.88       70.66       70.44       70.22       70.00    
  43    80.93       80.89       80.82       80.71       80.62       80.52       80.39       80.25       80.09       79.92    
        79.72       79.50       79.26       79.00       78.72       78.42       78.12       77.82       77.53       77.24    
        76.96       76.69       76.41       76.14       75.87       75.61       75.35       75.09       74.84       74.58    
        74.33       74.09       73.85       73.61       73.37       73.13       72.90       72.67       72.44       72.22    
        71.99       71.77       71.55       71.33       71.11       70.89       70.67       70.44       70.22       70.00    
  44    80.95       80.91       80.84       80.74       80.62       80.51       80.39       80.25       80.10       79.92    
        79.73       79.51       79.28       79.02       78.74       78.44       78.14       77.85       77.56       77.27    
        76.99       76.71       76.44       76.17       75.90       75.64       75.38       75.12       74.86       74.61    
        74.36       74.11       73.87       73.63       73.39       73.16       72.92       72.69       72.46       72.23    
        72.01       71.78       71.56       71.34       71.11       70.89       70.67       70.45       70.22       70.00    
  45  -1000.0       80.91       80.85       80.76       80.64       80.50       80.38       80.25       80.09       79.92    
        79.73       79.52       79.29       79.03       78.76       78.46       78.16       77.87       77.58       77.29    
        77.01       76.74       76.46       76.19       75.93       75.66       75.40       75.14       74.89       74.63    
        74.38       74.14       73.89       73.65       73.41       73.17       72.94       72.71       72.48       72.25    
        72.02       71.79       71.57       71.35       71.12       70.90       70.67       70.45       70.23       70.00    
  46  -1000.0     -1000.0       80.83       80.75       80.65       80.52       80.36       80.23       80.08       79.91    
        79.73       79.52       79.29       79.04       78.77       78.47       78.18       77.88       77.60       77.31    
        77.03       76.76       76.48       76.21       75.95       75.68       75.42       75.16       74.90       74.65    
        74.40       74.15       73.91       73.67       73.43       73.19       72.95       72.72       72.49       72.26    
        72.03       71.80       71.58       71.35       71.13       70.90       70.68       70.45       70.23       70.00    
  47  -1000.0     -1000.0     -1000.0       80.72       80.64       80.52       80.38       80.20       80.06       79.90    
        79.72       79.51       79.29       79.04       78.77       78.48       78.19       77.90       77.61       77.33    
        77.05       76.77       76.50       76.23       75.96       75.70       75.44       75.18       74.92       74.67    
        74.42       74.17       73.92       73.68       73.44       73.20       72.96       72.73       72.50       72.27    
        72.04       71.81       71.58       71.36       71.13       70.91       70.68       70.46       70.23       70.00    
  48  -1000.0     -1000.0     -1000.0     -1000.0       80.60       80.50       80.37       80.22       80.03       79.88    
        79.70       79.51       79.29       79.04       78.78       78.49       78.20       77.91       77.62       77.34    
        77.06       76.79       76.51       76.24       75.97       75.71       75.45       75.19       74.93       74.68    
        74.43       74.18       73.93       73.69       73.45       73.21       72.97       72.74       72.51       72.27    
        72.04       71.82       71.59       71.36       71.14       70.91       70.68       70.46       70.23       70.00    
  49  -1000.0     -1000.0     -1000.0     -1000.0     -1000.0       80.46       80.36       80.22       80.05       79.85    
        79.68       79.49       79.28       79.04       78.78       78.49       78.20       77.91       77.63       77.34    
        77.07       76.79       76.52       76.25       75.98       75.72       75.45       75.20       74.94       74.68    
        74.43       74.18       73.94       73.69       73.45       73.21       72.98       72.74       72.51       72.28    
        72.05       71.82       71.59       71.36       71.14       70.91       70.69       70.46       70.23       70.00    
  50  -1000.0     -1000.0     -1000.0     -1000.0     -1000.0     -1000.0       80.32       80.22       80.06       79.87    
        79.65       79.48       79.28       79.04       78.78       78.49       78.20       77.92       77.63       77.35    
        77.07       76.80       76.52       76.25       75.99       75.72       75.46       75.20       74.94       74.69    
        74.44       74.19       73.94       73.70       73.46       73.22       72.98       72.75       72.51       72.28    
        72.05       71.82       71.59       71.37       71.14       70.91       70.69       70.46       70.23       70.00    
1
              HEAD IN LAYER   2 AT END OF TIME STEP   1 IN STRESS PERIOD    1
  ---------------------------------------------------------------------------

            1           2           3           4           5           6           7           8           9          10
           11          12          13          14          15          16          17          18          19          20
           21          22          23          24          25          26          27          28          29          30
           31          32          33          34          35          36          37          38          39          40
           41          42          43          44          45          46          47          48          49          50
 ........................................................................................................................
   1  -1000.0     -1000.0     -1000.0     -1000.0     -1000.0     -1000.0     -1000.0     -1000.0       78.73       78.52    
        78.29       78.11       77.90       77.65       77.38       77.08       76.79       76.50       76.22       75.95    
        75.68       75.42       75.17       74.92       74.68       74.45       74.22       74.00       73.78       73.57    
        73.36       73.16       72.96       72.77       72.57       72.39       72.20       72.02       71.84       71.67    
        71.49       71.32       71.15       70.99       70.82       70.65       70.49       70.33       70.16       70.00    
   2  -1000.0     -1000.0     -1000.0     -1000.0     -1000.0     -1000.0     -1000.0       78.91       78.72       78.50    
        78.32       78.12       77.90       77.65       77.38       77.08       76.79       76.50       76.22       75.94    
        75.67       75.41       75.16       74.91       74.67       74.44       74.21       73.99       73.77       73.56    
        73.36       73.15       72.96       72.76       72.57       72.38       72.20       72.02       71.84       71.66    
        71.49       71.32       71.15       70.98       70.82       70.65       70.49       70.33       70.16       70.00    
   3  -1000.0     -1000.0     -1000.0     -1000.0     -1000.0     -1000.0       79.08       78.91       78.71       78.53    
        78.34       78.13       77.90       77.65       77.37       77.07       76.77       76.48       76.20       75.93    
        75.66       75.40       75.14       74.90       74.66       74.43       74.20       73.98       73.76       73.55    
        73.35       73.15       72.95       72.75       72.56       72.38       72.19       72.01       71.83       71.66    
        71.49       71.32       71.15       70.98       70.81       70.65       70.49       70.32       70.16       70.00    
   4  -1000.0     -1000.0     -1000.0     -1000.0     -1000.0       79.26       79.10       78.90       78.74       78.56    
        78.36       78.14       77.90       77.64       77.36       77.05       76.75       76.46       76.18       75.90    
        75.63       75.37       75.12       74.87       74.64       74.41       74.18       73.96       73.75       73.54    
        73.33       73.13       72.93       72.74       72.55       72.36       72.18       72.00       71.82       71.65    
        71.48       71.31       71.14       70.97       70.81       70.65       70.48       70.32       70.16       70.00    
   5  -1000.0     -1000.0     -1000.0     -1000.0       79.42       79.27       79.09       78.94       78.77       78.58    
        78.37       78.14       77.89       77.63       77.34       77.03       76.73       76.43       76.15       75.87    
        75.60       75.34       75.09       74.84       74.61       74.38       74.16       73.94       73.72       73.52    
        73.31       73.11       72.92       72.72       72.54       72.35       72.17       71.99       71.81       71.64    
        71.47       71.30       71.13       70.97       70.80       70.64       70.48       70.32       70.16       70.00    
   6  -1000.0     -1000.0     -1000.0       79.56       79.43       79.26       79.12       78.96       78.78       78.59    
        78.37       78.14       77.88       77.61       77.31       77.00       76.69       76.39       76.10       75.83    
        75.56       75.30       75.05       74.81       74.57       74.34       74.12       73.91       73.70       73.49    
        73.29       73.09       72.90       72.70       72.52       72.33       72.15       71.97       71.80       71.62    
        71.45       71.29       71.12       70.96       70.80       70.64       70.48       70.32       70.16       70.00    
   7  -1000.0     -1000.0       79.68       79.57       79.42       79.29       79.14       78.98       78.79       78.59    
        78.37       78.12       77.86       77.58       77.28       76.96       76.64       76.34       76.05       75.77    
        75.50       75.25       75.00       74.76       74.53       74.30       74.09       73.87       73.67       73.46    
        73.26       73.06       72.87       72.68       72.49       72.31       72.13       71.95       71.78       71.61    
        71.44       71.27       71.11       70.95       70.79       70.63       70.47       70.31       70.16       70.00    
   8  -1000.0       79.76       79.68       79.55       79.44       79.31       79.16       78.99       78.80       78.59    
        78.36       78.11       77.83       77.54       77.23       76.90       76.59       76.28       75.99       75.71    
        75.44       75.18       74.94       74.70       74.48       74.26       74.04       73.83       73.63       73.43    
        73.23       73.03       72.84       72.65       72.47       72.28       72.10       71.93       71.76       71.59    
        71.42       71.25       71.09       70.93       70.78       70.62       70.46       70.31       70.15       70.00    
   9    79.80       79.75       79.66       79.57       79.45       79.32       79.17       78.99       78.80       78.58    
        78.34       78.08       77.80       77.50       77.18       76.84       76.52       76.21       75.91       75.63    
        75.36       75.11       74.87       74.64       74.42       74.20       73.99       73.79       73.59       73.39    
        73.19       73.00       72.81       72.62       72.44       72.26       72.08       71.90       71.73       71.56    
        71.40       71.23       71.08       70.92       70.76       70.61       70.46       70.30       70.15       70.00    
  10    79.78       79.73       79.67       79.58       79.47       79.33       79.17       78.99       78.79       78.57    
        78.32       78.05       77.75       77.44       77.11       76.77       76.43       76.11       75.81       75.53    
        75.27       75.02       74.79       74.56       74.35       74.14       73.94       73.74       73.54       73.35    
        73.16       72.96       72.78       72.59       72.40       72.22       72.04       71.87       71.70       71.53    
        71.37       71.21       71.06       70.90       70.75       70.60       70.45       70.30       70.15       70.00    
  11    79.77       79.73       79.67       79.58       79.47       79.34       79.18       78.99       78.78       78.55    
        78.29       78.01       77.70       77.38       77.03       76.67       76.33       76.00       75.70       75.42    
        75.16       74.92       74.69       74.48       74.27       74.08       73.88       73.69       73.50       73.31    
        73.12       72.93       72.74       72.55       72.37       72.19       72.01       71.84       71.67       71.50    
        71.34       71.19       71.03       70.88       70.73       70.59       70.44       70.29       70.15       70.00    
  12    79.77       79.74       79.68       79.59       79.48       79.34       79.18       78.99       78.77       78.53    
        78.26       77.96       77.65       77.30       76.94       76.57       76.21       75.87       75.56       75.28    
        75.03       74.80       74.59       74.39       74.19       74.01       73.82       73.63       73.45       73.26    
        73.07       72.89       72.70       72.51       72.33       72.15       71.97       71.80       71.63       71.47    
        71.31       71.16       71.01       70.86       70.72       70.57       70.43       70.29       70.14       70.00    
  13    79.77       79.74       79.69       79.60       79.49       79.34       79.18       78.98       78.76       78.50    
        78.22       77.92       77.58       77.22       76.84       76.44       76.06       75.71       75.39       75.11    
        74.87       74.66       74.47       74.29       74.11       73.93       73.76       73.58       73.40       73.22    
        73.03       72.85       72.66       72.47       72.28       72.10       71.92       71.75       71.59       71.43    
        71.27       71.13       70.98       70.84       70.70       70.56       70.42       70.28       70.14       70.00    
  14    79.78       79.75       79.70       79.61       79.49       79.35       79.18       78.98       78.75       78.48    
        78.19       77.87       77.52       77.13       76.73       76.30       75.89       75.51       75.18       74.91    
        74.69       74.50       74.34       74.18       74.02       73.86       73.70       73.53       73.36       73.18    
        72.99       72.81       72.62       72.43       72.24       72.05       71.87       71.70       71.54       71.38    
        71.23       71.09       70.95       70.81       70.68       70.54       70.41       70.27       70.14       70.00    
  15    79.80       79.77       79.71       79.62       79.50       79.36       79.18       78.98       78.74       78.47    
        78.16       77.83       77.45       77.04       76.60       76.13       75.68       75.26       74.91       74.65    
        74.47       74.32       74.20       74.07       73.94       73.80       73.64       73.48       73.32       73.14    
        72.96       72.77       72.58       72.38       72.19       72.00       71.81       71.64       71.48       71.33    
        71.19       71.05       70.92       70.79       70.66       70.53       70.40       70.27       70.13       70.00    
  16    79.81       79.78       79.72       79.64       79.52       79.37       79.19       78.98       78.74       78.46    
        78.14       77.79       77.39       76.96       76.47       75.95       75.42       74.93       74.54       74.32    
        74.21       74.13       74.05       73.97       73.86       73.74       73.60       73.45       73.28       73.11    
        72.92       72.73       72.54       72.34       72.13       71.94       71.75       71.57       71.41       71.27    
        71.14       71.01       70.89       70.76       70.64       70.51       70.39       70.26       70.13       70.00    
  17    79.83       79.80       79.75       79.66       79.54       79.39       79.20       78.99       78.74       78.46    
        78.13       77.76       77.35       76.88       76.36       75.76       75.14       74.50       73.99       73.89    
        73.91       73.93       73.93       73.88       73.80       73.69       73.57       73.42       73.26       73.09    
        72.90       72.71       72.50       72.29       72.08       71.87       71.67       71.49       71.34       71.20    
        71.08       70.97       70.86       70.74       70.62       70.50       70.38       70.25       70.13       70.00    
  18    79.86       79.83       79.77       79.68       79.56       79.41       79.22       79.01       78.76       78.47    
        78.14       77.76       77.33       76.84       76.28       75.61       74.84       73.94       73.03       73.32    
        73.61       73.77       73.83       73.82       73.77       73.67       73.55       73.41       73.25       73.08    
        72.89       72.69       72.48       72.25       72.03       71.80       71.58       71.39       71.25       71.13    
        71.03       70.93       70.83       70.72       70.61       70.49       70.37       70.25       70.13       70.00    
  19    79.89       79.86       79.80       79.71       79.59       79.44       79.25       79.03       78.78       78.49    
        78.16       77.78       77.34       76.84       76.26       75.56       74.67       73.38       70.82       72.75    
        73.43       73.71       73.81       73.82       73.77       73.68       73.56       73.42       73.26       73.08    
        72.89       72.68       72.46       72.23       71.98       71.72       71.48       71.27       71.14       71.05    
        70.98       70.89       70.80       70.70       70.60       70.49       70.37       70.25       70.12       70.00    
  20    79.92       79.89       79.83       79.74       79.62       79.47       79.29       79.07       78.82       78.53    
        78.20       77.82       77.39       76.90       76.34       75.67       74.90       74.00       73.09       73.38    
        73.66       73.82       73.88       73.87       73.81       73.72       73.59       73.45       73.28       73.10    
        72.90       72.69       72.46       72.21       71.95       71.66       71.37       71.12       71.03       70.99    
        70.94       70.87       70.79       70.70       70.60       70.48       70.37       70.25       70.12       70.00    
  21    79.96       79.93       79.87       79.78       79.66       79.51       79.33       79.12       78.87       78.58    
        78.26       77.89       77.47       77.01       76.48       75.88       75.25       74.62       74.11       74.00    
        74.02       74.04       74.02       73.97       73.89       73.78       73.64       73.49       73.32       73.13    
        72.93       72.72       72.48       72.23       71.95       71.65       71.31       70.99       70.97       70.96    
        70.93       70.87       70.80       70.70       70.60       70.49       70.37       70.25       70.13       70.00    
  22    80.00       79.97       79.91       79.82       79.71       79.56       79.38       79.17       78.92       78.64    
        78.33       77.97       77.58       77.14       76.65       76.13       75.60       75.10       74.71       74.49    
        74.37       74.28       74.20       74.11       73.99       73.86       73.72       73.55       73.38       73.18    
        72.98       72.76       72.53       72.27       72.00       71.71       71.42       71.17       71.07       71.02    
        70.97       70.90       70.82       70.72       70.62       70.50       70.38       70.26       70.13       70.00    
  23    80.04       80.01       79.96       79.87       79.75       79.61       79.43       79.23       78.99       78.72    
        78.41       78.07       77.70       77.29       76.84       76.37       75.91       75.48       75.13       74.87    
        74.68       74.53       74.39       74.26       74.12       73.97       73.80       73.63       73.45       73.25    
        73.04       72.82       72.59       72.35       72.09       71.83       71.57       71.36       71.22       71.13    
        71.04       70.96       70.86       70.75       70.64       70.52       70.39       70.27       70.13       70.00    
  24    80.09       80.06       80.00       79.92       79.81       79.66       79.49       79.29       79.06       78.80    
        78.51       78.18       77.82       77.44       77.03       76.59       76.18       75.79       75.46       75.18    
        74.95       74.76       74.58       74.42       74.25       74.08       73.90       73.72       73.53       73.32    
        73.11       72.90       72.67       72.43       72.19       71.95       71.72       71.52       71.37       71.24    
        71.13       71.02       70.91       70.79       70.67       70.54       70.41       70.28       70.14       70.00    
  25    80.14       80.11       80.06       79.97       79.86       79.72       79.56       79.36       79.14       78.88    
        78.60       78.29       77.95       77.59       77.20       76.80       76.41       76.05       75.73       75.44    
        75.19       74.97       74.76       74.57       74.38       74.20       74.01       73.81       73.61       73.41    
        73.20       72.98       72.75       72.53       72.30       72.07       71.86       71.66       71.50       71.35    
        71.22       71.09       70.96       70.84       70.70       70.57       70.43       70.29       70.15       70.00    
  26    80.19       80.16       80.11       80.03       79.92       79.79       79.62       79.43       79.22       78.97    
        78.70       78.40       78.08       77.73       77.37       76.98       76.62       76.27       75.95       75.66    
        75.40       75.16       74.93       74.72       74.52       74.32       74.11       73.91       73.71       73.50    
        73.28       73.06       72.84       72.62       72.40       72.18       71.98       71.79       71.61       71.45    
        71.30       71.16       71.02       70.88       70.74       70.60       70.45       70.30       70.15       70.00    
  27    80.24       80.22       80.16       80.08       79.98       79.85       79.69       79.51       79.30       79.06    
        78.80       78.51       78.20       77.87       77.52       77.15       76.80       76.46       76.15       75.85    
        75.58       75.33       75.09       74.86       74.65       74.43       74.22       74.01       73.80       73.58    
        73.37       73.15       72.93       72.71       72.49       72.28       72.08       71.89       71.71       71.54    
        71.38       71.22       71.07       70.92       70.77       70.62       70.47       70.31       70.16       70.00    
  28    80.29       80.27       80.22       80.14       80.04       79.91       79.76       79.58       79.37       79.15    
        78.89       78.62       78.32       78.00       77.66       77.30       76.96       76.63       76.32       76.02    
        75.75       75.48       75.24       75.00       74.77       74.54       74.32       74.10       73.89       73.67    
        73.45       73.23       73.01       72.79       72.58       72.37       72.17       71.97       71.79       71.61    
        71.44       71.28       71.12       70.96       70.80       70.64       70.48       70.32       70.16       70.00    
  29    80.35       80.32       80.27       80.20       80.10       79.97       79.82       79.65       79.45       79.23    
        78.98       78.72       78.43       78.11       77.79       77.44       77.10       76.78       76.47       76.17    
        75.89       75.63       75.37       75.12       74.89       74.65       74.42       74.20       73.98       73.75    
        73.53       73.31       73.09       72.87       72.66       72.45       72.25       72.05       71.86       71.68    
        71.50       71.33       71.16       70.99       70.83       70.66       70.50       70.33       70.17       70.00    
  30    80.40       80.38       80.33       80.25       80.16       80.04       79.89       79.72       79.53       79.31    
        79.07       78.81       78.53       78.22       77.90       77.56       77.23       76.91       76.61       76.31    
        76.03       75.76       75.49       75.24       75.00       74.76       74.52       74.29       74.06       73.84    
        73.61       73.39       73.17       72.95       72.74       72.53       72.32       72.12       71.93       71.74    
        71.56       71.38       71.20       71.03       70.86       70.69       70.51       70.34       70.17       70.00    
  31    80.45       80.43       80.38       80.31       80.21       80.10       79.95       79.79       79.60       79.39    
        79.15       78.90       78.62       78.33       78.01       77.68       77.35       77.03       76.73       76.43    
        76.15       75.87       75.61       75.35       75.10       74.85       74.61       74.38       74.15       73.92    
        73.69       73.46       73.24       73.02       72.81       72.60       72.39       72.19       71.99       71.80    
        71.61       71.42       71.24       71.06       70.88       70.71       70.53       70.35       70.18       70.00    
  32    80.50       80.48       80.43       80.36       80.27       80.15       80.01       79.85       79.67       79.46    
        79.23       78.98       78.71       78.42       78.11       77.78       77.46       77.14       76.84       76.54    
        76.26       75.98       75.71       75.45       75.20       74.95       74.70       74.46       74.23       73.99    
        73.76       73.54       73.31       73.09       72.87       72.66       72.45       72.25       72.04       71.85    
        71.65       71.47       71.28       71.09       70.91       70.73       70.55       70.36       70.18       70.00    
  33    80.55       80.53       80.48       80.41       80.32       80.21       80.07       79.91       79.73       79.53    
        79.30       79.06       78.79       78.51       78.20       77.87       77.55       77.24       76.94       76.65    
        76.36       76.08       75.81       75.54       75.29       75.03       74.79       74.54       74.30       74.07    
        73.83       73.60       73.38       73.16       72.94       72.72       72.51       72.30       72.10       71.90    
        71.70       71.50       71.31       71.12       70.93       70.75       70.56       70.37       70.19       70.00    
  34    80.60       80.57       80.53       80.46       80.37       80.26       80.12       79.97       79.79       79.59    
        79.37       79.13       78.87       78.58       78.28       77.96       77.64       77.33       77.03       76.74    
        76.45       76.17       75.90       75.63       75.37       75.11       74.86       74.62       74.37       74.14    
        73.90       73.67       73.44       73.22       73.00       72.78       72.56       72.35       72.14       71.94    
        71.74       71.54       71.34       71.15       70.96       70.76       70.57       70.38       70.19       70.00    
  35    80.64       80.62       80.57       80.51       80.42       80.31       80.17       80.02       79.85       79.65    
        79.43       79.19       78.94       78.66       78.36       78.04       77.72       77.42       77.11       76.82    
        76.53       76.25       75.98       75.71       75.45       75.19       74.94       74.69       74.44       74.20    
        73.96       73.73       73.50       73.27       73.05       72.83       72.61       72.40       72.19       71.98    
        71.78       71.57       71.37       71.17       70.98       70.78       70.59       70.39       70.20       70.00    
  36    80.68       80.66       80.61       80.55       80.46       80.35       80.22       80.07       79.90       79.70    
        79.49       79.25       79.00       78.72       78.42       78.11       77.79       77.49       77.19       76.90    
        76.61       76.33       76.05       75.78       75.52       75.26       75.00       74.75       74.50       74.26    
        74.02       73.79       73.56       73.33       73.10       72.88       72.66       72.44       72.23       72.02    
        71.81       71.60       71.40       71.20       71.00       70.80       70.60       70.40       70.20       70.00    
  37    80.72       80.69       80.65       80.59       80.50       80.39       80.26       80.11       79.94       79.75    
        79.54       79.31       79.05       78.78       78.48       78.17       77.86       77.56       77.26       76.96    
        76.68       76.39       76.12       75.85       75.58       75.32       75.06       74.81       74.56       74.32    
        74.08       73.84       73.61       73.37       73.15       72.92       72.70       72.48       72.27       72.05    
        71.84       71.63       71.43       71.22       71.02       70.81       70.61       70.41       70.20       70.00    
  38    80.75       80.73       80.68       80.62       80.53       80.43       80.30       80.15       79.98       79.79    
        79.58       79.35       79.10       78.83       78.54       78.23       77.92       77.61       77.32       77.02    
        76.74       76.46       76.18       75.91       75.64       75.38       75.12       74.87       74.62       74.37    
        74.13       73.89       73.65       73.42       73.19       72.96       72.74       72.52       72.30       72.08    
        71.87       71.66       71.45       71.24       71.03       70.82       70.62       70.41       70.21       70.00    
  39    80.78       80.76       80.71       80.65       80.56       80.46       80.33       80.18       80.02       79.83    
        79.62       79.39       79.15       78.88       78.59       78.28       77.97       77.67       77.37       77.08    
        76.79       76.51       76.23       75.96       75.69       75.43       75.17       74.92       74.67       74.42    
        74.17       73.93       73.70       73.46       73.23       73.00       72.78       72.55       72.33       72.11    
        71.90       71.68       71.47       71.26       71.05       70.84       70.63       70.42       70.21       70.00    
  40    80.81       80.78       80.74       80.67       80.59       80.48       80.36       80.21       80.04       79.86    
        79.65       79.43       79.18       78.92       78.63       78.32       78.01       77.71       77.42       77.13    
        76.84       76.56       76.28       76.01       75.74       75.48       75.22       74.96       74.71       74.46    
        74.22       73.97       73.73       73.50       73.27       73.04       72.81       72.58       72.36       72.14    
        71.92       71.70       71.49       71.27       71.06       70.85       70.64       70.42       70.21       70.00    
  41    80.85       80.81       80.76       80.69       80.61       80.50       80.37       80.23       80.07       79.88    
        79.68       79.46       79.21       78.95       78.66       78.36       78.05       77.76       77.46       77.17    
        76.89       76.60       76.33       76.05       75.79       75.52       75.26       75.00       74.75       74.50    
        74.25       74.01       73.77       73.53       73.30       73.07       72.84       72.61       72.39       72.16    
        71.94       71.72       71.51       71.29       71.07       70.86       70.64       70.43       70.21       70.00    
  42    80.89       80.85       80.78       80.71       80.62       80.51       80.39       80.25       80.08       79.90    
        79.70       79.48       79.24       78.98       78.69       78.39       78.09       77.79       77.50       77.21    
        76.92       76.64       76.37       76.09       75.82       75.56       75.30       75.04       74.79       74.53    
        74.29       74.04       73.80       73.56       73.33       73.09       72.86       72.63       72.41       72.18    
        71.96       71.74       71.52       71.30       71.08       70.87       70.65       70.43       70.22       70.00    
  43  -1000.0       80.89       80.82       80.71       80.62       80.52       80.39       80.25       80.09       79.91    
        79.72       79.50       79.26       79.00       78.72       78.42       78.12       77.82       77.53       77.24    
        76.96       76.68       76.40       76.13       75.86       75.59       75.33       75.07       74.82       74.57    
        74.32       74.07       73.83       73.59       73.35       73.12       72.89       72.66       72.43       72.20    
        71.98       71.75       71.53       71.31       71.09       70.87       70.66       70.44       70.22       70.00    
  44  -1000.0     -1000.0       80.84       80.74       80.62       80.51       80.39       80.25       80.10       79.92    
        79.73       79.51       79.28       79.02       78.74       78.44       78.14       77.85       77.56       77.27    
        76.99       76.71       76.43       76.16       75.89       75.62       75.36       75.10       74.84       74.59    
        74.34       74.10       73.85       73.61       73.37       73.14       72.91       72.67       72.44       72.22    
        71.99       71.77       71.55       71.32       71.10       70.88       70.66       70.44       70.22       70.00    
  45  -1000.0     -1000.0     -1000.0       80.76       80.64       80.50       80.38       80.25       80.09       79.92    
        79.73       79.52       79.29       79.03       78.76       78.46       78.16       77.87       77.58       77.29    
        77.01       76.73       76.45       76.18       75.91       75.65       75.38       75.12       74.87       74.61    
        74.36       74.12       73.87       73.63       73.39       73.16       72.92       72.69       72.46       72.23    
        72.00       71.78       71.56       71.33       71.11       70.89       70.67       70.44       70.22       70.00    
  46  -1000.0     -1000.0     -1000.0     -1000.0       80.65       80.52       80.36       80.23       80.08       79.91    
        79.73       79.52       79.29       79.04       78.77       78.47       78.18       77.88       77.60       77.31    
        77.03       76.75       76.47       76.20       75.93       75.67       75.40       75.14       74.89       74.63    
        74.38       74.14       73.89       73.65       73.41       73.17       72.94       72.70       72.47       72.24    
        72.01       71.79       71.56       71.34       71.12       70.89       70.67       70.45       70.22       70.00    
  47  -1000.0     -1000.0     -1000.0     -1000.0     -1000.0       80.52       80.38       80.20       80.06       79.90    
        79.72       79.51       79.29       79.04       78.77       78.48       78.19       77.90       77.61       77.33    
        77.04       76.76       76.49       76.22       75.95       75.68       75.42       75.16       74.90       74.65    
        74.40       74.15       73.90       73.66       73.42       73.18       72.95       72.71       72.48       72.25    
        72.02       71.80       71.57       71.34       71.12       70.90       70.67       70.45       70.22       70.00    
  48  -1000.0     -1000.0     -1000.0     -1000.0     -1000.0     -1000.0       80.37       80.22       80.03       79.88    
        79.70       79.51       79.29       79.04       78.78       78.49       78.20       77.91       77.62       77.34    
        77.05       76.78       76.50       76.23       75.96       75.69       75.43       75.17       74.91       74.66    
        74.41       74.16       73.91       73.67       73.43       73.19       72.96       72.72       72.49       72.26    
        72.03       71.80       71.57       71.35       71.12       70.90       70.67       70.45       70.23       70.00    
  49  -1000.0     -1000.0     -1000.0     -1000.0     -1000.0     -1000.0     -1000.0       80.22       80.05       79.85    
        79.68       79.49       79.28       79.04       78.78       78.49       78.20       77.91       77.63       77.34    
        77.06       76.78       76.51       76.24       75.97       75.70       75.44       75.18       74.92       74.67    
        74.42       74.17       73.92       73.68       73.44       73.20       72.96       72.73       72.49       72.26    
        72.03       71.81       71.58       71.35       71.13       70.90       70.68       70.45       70.23       70.00    
  50  -1000.0     -1000.0     -1000.0     -1000.0     -1000.0     -1000.0     -1000.0     -1000.0       80.06       79.87    
        79.65       79.48       79.28       79.04       78.78       78.49       78.20       77.92       77.63       77.35    
        77.07       76.79       76.51       76.24       75.97       75.71       75.44       75.18       74.92       74.67    
        74.42       74.17       73.92       73.68       73.44       73.20       72.96       72.73       72.50       72.27    
        72.04       71.81       71.58       71.35       71.13       70.90       70.68       70.45       70.23       70.00    
1
              HEAD IN LAYER   3 AT END OF TIME STEP   1 IN STRESS PERIOD    1
  ---------------------------------------------------------------------------

            1           2           3           4           5           6           7           8           9          10
           11          12          13          14          15          16          17          18          19          20
           21          22          23          24          25          26          27          28          29          30
           31          32          33          34          35          36          37          38          39          40
           41          42          43          44          45          46          47          48          49          50
 ........................................................................................................................
   1  -1000.0     -1000.0     -1000.0     -1000.0     -1000.0     -1000.0     -1000.0     -1000.0     -1000.0     -1000.0    
        78.29       78.11       77.90       77.65       77.38       77.08       76.79       76.50       76.22       75.95    
        75.68       75.41       75.16       74.91       74.67       74.44       74.21       73.99       73.77       73.56    
        73.35       73.15       72.95       72.75       72.56       72.37       72.19       72.01       71.83       71.66    
        71.48       71.31       71.14       70.98       70.81       70.65       70.49       70.32       70.16       70.00    
   2  -1000.0     -1000.0     -1000.0     -1000.0     -1000.0     -1000.0     -1000.0     -1000.0     -1000.0       78.50    
        78.32       78.12       77.90       77.65       77.38       77.08       76.79       76.50       76.22       75.94    
        75.67       75.41       75.15       74.90       74.66       74.43       74.20       73.98       73.76       73.55    
        73.34       73.14       72.94       72.75       72.56       72.37       72.19       72.01       71.83       71.65    
        71.48       71.31       71.14       70.98       70.81       70.65       70.48       70.32       70.16       70.00    
   3  -1000.0     -1000.0     -1000.0     -1000.0     -1000.0     -1000.0     -1000.0     -1000.0       78.70       78.53    
        78.34       78.13       77.90       77.65       77.37       77.07       76.77       76.48       76.20       75.93    
        75.65       75.39       75.14       74.89       74.65       74.42       74.19       73.97       73.75       73.54    
        73.33       73.13       72.93       72.74       72.55       72.36       72.18       72.00       71.82       71.65    
        71.47       71.30       71.14       70.97       70.81       70.64       70.48       70.32       70.16       70.00    
   4  -1000.0     -1000.0     -1000.0     -1000.0     -1000.0     -1000.0     -1000.0       78.90       78.74       78.56    
        78.36       78.14       77.90       77.64       77.36       77.05       76.75       76.46       76.18       75.90    
        75.63       75.37       75.11       74.87       74.63       74.39       74.17       73.95       73.73       73.52    
        73.32       73.12       72.92       72.73       72.54       72.35       72.17       71.99       71.81       71.64    
        71.47       71.30       71.13       70.97       70.80       70.64       70.48       70.32       70.16       70.00    
   5  -1000.0     -1000.0     -1000.0     -1000.0     -1000.0     -1000.0       79.09       78.94       78.77       78.58    
        78.37       78.14       77.89       77.63       77.34       77.03       76.73       76.43       76.15       75.87    
        75.60       75.33       75.08       74.84       74.60       74.37       74.14       73.92       73.71       73.50    
        73.30       73.10       72.90       72.71       72.52       72.34       72.15       71.97       71.80       71.62    
[...]
        70.79       70.77       70.72       70.65       70.56       70.46       70.35       70.24       70.12       70.00    
  24    80.09       80.06       80.00       79.92       79.81       79.66       79.49       79.29       79.06       78.80    
        78.51       78.18       77.82       77.44       77.03       76.59       76.18       75.79       75.46       75.18    
        74.95       74.75       74.57       74.40       74.22       74.05       73.86       73.67       73.47       73.25    
        73.03       72.79       72.53       72.26       71.98       71.69       71.41       71.19       71.06       70.98    
        70.92       70.86       70.78       70.69       70.59       70.49       70.37       70.25       70.13       70.00    
  25    80.14       80.11       80.06       79.97       79.86       79.72       79.56       79.36       79.14       78.88    
        78.60       78.29       77.95       77.59       77.20       76.80       76.41       76.05       75.73       75.44    
        75.18       74.96       74.75       74.55       74.36       74.17       73.97       73.77       73.56       73.34    
        73.11       72.88       72.64       72.38       72.13       71.87       71.63       71.43       71.27       71.15    
        71.05       70.95       70.85       70.75       70.63       70.51       70.39       70.26       70.13       70.00    
  26    80.19       80.16       80.11       80.03       79.92       79.79       79.62       79.43       79.22       78.97    
        78.70       78.40       78.08       77.73       77.37       76.98       76.62       76.27       75.95       75.66    
        75.39       75.15       74.92       74.70       74.49       74.28       74.08       73.87       73.65       73.43    
        73.21       72.97       72.74       72.50       72.26       72.03       71.81       71.61       71.44       71.30    
        71.17       71.04       70.92       70.80       70.67       70.54       70.41       70.28       70.14       70.00    
  27    80.24       80.22       80.16       80.08       79.98       79.85       79.69       79.51       79.30       79.06    
        78.80       78.51       78.20       77.87       77.52       77.15       76.80       76.46       76.15       75.85    
        75.58       75.32       75.08       74.85       74.62       74.40       74.18       73.97       73.75       73.52    
        73.30       73.07       72.84       72.61       72.38       72.16       71.95       71.75       71.58       71.42    
        71.27       71.13       70.99       70.85       70.71       70.57       70.43       70.29       70.14       70.00    
  28    80.29       80.27       80.22       80.14       80.04       79.91       79.76       79.58       79.37       79.15    
        78.89       78.62       78.32       78.00       77.66       77.30       76.96       76.63       76.32       76.02    
        75.74       75.47       75.22       74.98       74.75       74.52       74.29       74.07       73.84       73.62    
        73.39       73.16       72.94       72.71       72.49       72.27       72.07       71.87       71.69       71.52    
        71.36       71.20       71.05       70.90       70.75       70.60       70.45       70.30       70.15       70.00    
  29    80.35       80.32       80.27       80.20       80.10       79.97       79.82       79.65       79.45       79.23    
        78.98       78.72       78.43       78.11       77.79       77.44       77.10       76.78       76.47       76.17    
        75.89       75.62       75.36       75.11       74.86       74.63       74.40       74.17       73.94       73.71    
        73.48       73.26       73.03       72.81       72.59       72.38       72.17       71.97       71.78       71.61    
        71.43       71.27       71.11       70.95       70.79       70.63       70.47       70.32       70.16       70.00    
  30    80.40       80.38       80.33       80.25       80.16       80.04       79.89       79.72       79.53       79.31    
        79.07       78.81       78.53       78.22       77.90       77.56       77.23       76.91       76.61       76.31    
        76.02       75.75       75.48       75.22       74.98       74.73       74.50       74.26       74.03       73.80    
        73.57       73.34       73.12       72.90       72.68       72.47       72.26       72.06       71.87       71.68    
        71.50       71.33       71.16       70.99       70.82       70.66       70.49       70.33       70.16       70.00    
  31    80.45       80.43       80.38       80.31       80.21       80.10       79.95       79.79       79.60       79.39    
        79.15       78.90       78.62       78.33       78.01       77.68       77.35       77.03       76.73       76.43    
        76.14       75.86       75.60       75.33       75.08       74.83       74.59       74.35       74.12       73.88    
        73.65       73.43       73.20       72.98       72.76       72.55       72.34       72.14       71.94       71.75    
        71.56       71.38       71.21       71.03       70.86       70.68       70.51       70.34       70.17       70.00    
  32    80.50       80.48       80.43       80.36       80.27       80.15       80.01       79.85       79.67       79.46    
        79.23       78.98       78.71       78.42       78.11       77.78       77.46       77.14       76.84       76.54    
        76.25       75.97       75.70       75.44       75.18       74.93       74.68       74.44       74.20       73.96    
        73.73       73.50       73.28       73.05       72.84       72.62       72.41       72.21       72.01       71.81    
        71.62       71.43       71.25       71.07       70.89       70.71       70.53       70.35       70.18       70.00    
  33    80.55       80.53       80.48       80.41       80.32       80.21       80.07       79.91       79.73       79.53    
        79.30       79.06       78.79       78.51       78.20       77.87       77.55       77.24       76.94       76.65    
        76.35       76.07       75.80       75.53       75.27       75.01       74.76       74.52       74.28       74.04    
        73.81       73.58       73.35       73.12       72.90       72.69       72.48       72.27       72.06       71.86    
        71.67       71.48       71.29       71.10       70.91       70.73       70.55       70.36       70.18       70.00    
  34    80.60       80.57       80.53       80.46       80.37       80.26       80.12       79.97       79.79       79.59    
        79.37       79.13       78.87       78.58       78.28       77.96       77.64       77.33       77.03       76.74    
        76.45       76.16       75.89       75.62       75.35       75.10       74.84       74.60       74.35       74.11    
        73.88       73.64       73.41       73.19       72.97       72.75       72.53       72.32       72.12       71.91    
        71.71       71.52       71.32       71.13       70.94       70.75       70.56       70.37       70.19       70.00    
  35    80.64       80.62       80.57       80.51       80.42       80.31       80.17       80.02       79.85       79.65    
        79.43       79.19       78.94       78.66       78.36       78.04       77.72       77.42       77.11       76.82    
        76.53       76.24       75.97       75.70       75.43       75.17       74.92       74.67       74.42       74.18    
        73.94       73.71       73.48       73.25       73.03       72.80       72.59       72.37       72.16       71.96    
        71.75       71.55       71.35       71.16       70.96       70.77       70.58       70.38       70.19       70.00    
  36    80.68       80.66       80.61       80.55       80.46       80.35       80.22       80.07       79.90       79.70    
        79.49       79.25       79.00       78.72       78.42       78.11       77.79       77.49       77.19       76.90    
        76.60       76.32       76.04       75.77       75.50       75.24       74.98       74.73       74.49       74.24    
        74.00       73.77       73.53       73.30       73.08       72.86       72.64       72.42       72.21       72.00    
        71.79       71.59       71.38       71.18       70.98       70.79       70.59       70.39       70.20       70.00    
  37    80.72       80.69       80.65       80.59       80.50       80.39       80.26       80.11       79.94       79.75    
        79.54       79.31       79.05       78.78       78.48       78.17       77.86       77.56       77.26       76.96    
        76.67       76.39       76.11       75.84       75.57       75.30       75.05       74.79       74.54       74.30    
        74.06       73.82       73.59       73.35       73.13       72.90       72.68       72.46       72.25       72.03    
        71.82       71.62       71.41       71.21       71.00       70.80       70.60       70.40       70.20       70.00    
  38    80.75       80.73       80.68       80.62       80.53       80.43       80.30       80.15       79.98       79.79    
        79.58       79.35       79.10       78.83       78.54       78.23       77.92       77.61       77.32       77.02    
        76.73       76.45       76.17       75.90       75.63       75.36       75.10       74.85       74.60       74.35    
        74.11       73.87       73.63       73.40       73.17       72.94       72.72       72.50       72.28       72.07    
        71.85       71.64       71.43       71.23       71.02       70.81       70.61       70.41       70.20       70.00    
  39    80.78       80.76       80.71       80.65       80.56       80.46       80.33       80.18       80.02       79.83    
        79.62       79.39       79.15       78.88       78.59       78.28       77.97       77.67       77.37       77.08    
        76.79       76.50       76.22       75.95       75.68       75.42       75.16       74.90       74.65       74.40    
        74.16       73.92       73.68       73.44       73.21       72.98       72.76       72.54       72.31       72.10    
        71.88       71.67       71.46       71.24       71.04       70.83       70.62       70.41       70.21       70.00    
  40    80.81       80.78       80.74       80.67       80.59       80.48       80.35       80.21       80.04       79.86    
        79.65       79.43       79.18       78.92       78.63       78.32       78.01       77.71       77.42       77.13    
        76.84       76.55       76.27       76.00       75.73       75.46       75.20       74.95       74.69       74.44    
        74.20       73.96       73.72       73.48       73.25       73.02       72.79       72.57       72.34       72.12    
        71.91       71.69       71.47       71.26       71.05       70.84       70.63       70.42       70.21       70.00    
  41  -1000.0       80.81       80.76       80.69       80.61       80.50       80.37       80.23       80.07       79.88    
        79.68       79.46       79.21       78.95       78.66       78.36       78.05       77.76       77.46       77.17    
        76.88       76.60       76.32       76.04       75.77       75.51       75.25       74.99       74.73       74.48    
        74.24       73.99       73.75       73.52       73.28       73.05       72.82       72.59       72.37       72.15    
        71.93       71.71       71.49       71.28       71.06       70.85       70.64       70.42       70.21       70.00    
  42  -1000.0     -1000.0       80.78       80.71       80.62       80.51       80.39       80.25       80.08       79.90    
        79.70       79.48       79.24       78.98       78.69       78.39       78.09       77.79       77.50       77.21    
        76.92       76.64       76.36       76.08       75.81       75.55       75.28       75.02       74.77       74.52    
        74.27       74.03       73.78       73.55       73.31       73.08       72.85       72.62       72.39       72.17    
        71.95       71.73       71.51       71.29       71.07       70.86       70.64       70.43       70.21       70.00    
  43  -1000.0     -1000.0     -1000.0       80.71       80.62       80.52       80.39       80.25       80.09       79.91    
        79.72       79.50       79.26       79.00       78.72       78.42       78.12       77.82       77.53       77.24    
        76.95       76.67       76.39       76.12       75.85       75.58       75.32       75.06       74.80       74.55    
        74.30       74.06       73.81       73.57       73.34       73.10       72.87       72.64       72.41       72.19    
        71.96       71.74       71.52       71.30       71.08       70.87       70.65       70.43       70.22       70.00    
  44  -1000.0     -1000.0     -1000.0     -1000.0       80.62       80.51       80.39       80.25       80.10       79.92    
        79.73       79.51       79.28       79.02       78.74       78.44       78.14       77.85       77.56       77.27    
        76.98       76.70       76.42       76.15       75.87       75.61       75.34       75.09       74.83       74.58    
        74.33       74.08       73.84       73.60       73.36       73.12       72.89       72.66       72.43       72.20    
        71.98       71.76       71.53       71.31       71.09       70.87       70.65       70.44       70.22       70.00    
  45  -1000.0     -1000.0     -1000.0     -1000.0     -1000.0       80.50       80.38       80.25       80.09       79.92    
        79.73       79.52       79.29       79.03       78.76       78.46       78.16       77.87       77.58       77.29    
        77.01       76.72       76.44       76.17       75.90       75.63       75.37       75.11       74.85       74.60    
        74.35       74.10       73.86       73.62       73.38       73.14       72.91       72.68       72.45       72.22    
        71.99       71.77       71.54       71.32       71.10       70.88       70.66       70.44       70.22       70.00    
  46  -1000.0     -1000.0     -1000.0     -1000.0     -1000.0     -1000.0       80.36       80.23       80.08       79.91    
        79.73       79.52       79.29       79.04       78.77       78.47       78.18       77.88       77.60       77.31    
        77.02       76.74       76.46       76.19       75.92       75.65       75.39       75.13       74.87       74.62    
        74.37       74.12       73.87       73.63       73.39       73.16       72.92       72.69       72.46       72.23    
        72.00       71.78       71.55       71.33       71.11       70.88       70.66       70.44       70.22       70.00    
  47  -1000.0     -1000.0     -1000.0     -1000.0     -1000.0     -1000.0     -1000.0       80.20       80.06       79.90    
        79.72       79.51       79.29       79.04       78.77       78.48       78.19       77.90       77.61       77.33    
        77.04       76.76       76.48       76.21       75.94       75.67       75.40       75.14       74.89       74.63    
        74.38       74.13       73.89       73.65       73.41       73.17       72.93       72.70       72.47       72.24    
        72.01       71.78       71.56       71.33       71.11       70.89       70.67       70.44       70.22       70.00    
  48  -1000.0     -1000.0     -1000.0     -1000.0     -1000.0     -1000.0     -1000.0     -1000.0       80.03       79.88    
        79.70       79.51       79.29       79.04       78.78       78.49       78.20       77.91       77.62       77.34    
        77.05       76.77       76.49       76.22       75.95       75.68       75.42       75.16       74.90       74.64    
        74.39       74.14       73.90       73.66       73.41       73.18       72.94       72.71       72.47       72.24    
        72.02       71.79       71.56       71.34       71.11       70.89       70.67       70.44       70.22       70.00    
  49  -1000.0     -1000.0     -1000.0     -1000.0     -1000.0     -1000.0     -1000.0     -1000.0     -1000.0       79.85    
        79.68       79.49       79.28       79.04       78.78       78.49       78.20       77.91       77.63       77.34    
        77.06       76.78       76.50       76.23       75.96       75.69       75.42       75.16       74.91       74.65    
        74.40       74.15       73.91       73.66       73.42       73.18       72.95       72.71       72.48       72.25    
        72.02       71.79       71.57       71.34       71.12       70.89       70.67       70.45       70.22       70.00    
  50  -1000.0     -1000.0     -1000.0     -1000.0     -1000.0     -1000.0     -1000.0     -1000.0     -1000.0     -1000.0    
        79.65       79.48       79.28       79.04       78.78       78.49       78.20       77.92       77.63       77.35    
        77.06       76.78       76.50       76.23       75.96       75.69       75.43       75.17       74.91       74.66    
        74.40       74.15       73.91       73.67       73.42       73.19       72.95       72.71       72.48       72.25    
        72.02       71.79       71.57       71.34       71.12       70.89       70.67       70.45       70.22       70.00    

 HEAD WILL BE SAVED ON UNIT   51 AT END OF TIME STEP    1, STRESS PERIOD    1

 DRAWDOWN WILL BE SAVED ON UNIT   52 AT END OF TIME STEP    1, STRESS PERIOD    1
1
  VOLUMETRIC BUDGET FOR ENTIRE MODEL AT END OF TIME STEP    1, STRESS PERIOD   1
  ------------------------------------------------------------------------------

     CUMULATIVE VOLUMES      L**3       RATES FOR THIS TIME STEP      L**3/T
     ------------------                 ------------------------

           IN:                                      IN:
           ---                                      ---
             STORAGE =           0.0000               STORAGE =           0.0000
       CONSTANT HEAD =           0.0000         CONSTANT HEAD =           0.0000
               WELLS =           0.0000                 WELLS =           0.0000
                  ET =           0.0000                    ET =           0.0000
            RECHARGE =     2083644.0000              RECHARGE =       11575.7998
      STREAM LEAKAGE =       29249.6914        STREAM LEAKAGE =         162.4983

            TOTAL IN =     2112893.7500              TOTAL IN =       11738.2979

          OUT:                                     OUT:
          ----                                     ----
             STORAGE =           0.0000               STORAGE =           0.0000
       CONSTANT HEAD =      861357.8125         CONSTANT HEAD =        4785.3213
               WELLS =     1251536.0000                 WELLS =        6952.9775
                  ET =           0.0000                    ET =           0.0000
            RECHARGE =           0.0000              RECHARGE =           0.0000
      STREAM LEAKAGE =           0.0000        STREAM LEAKAGE =           0.0000

           TOTAL OUT =     2112893.7500             TOTAL OUT =       11738.2988

            IN - OUT =           0.0000              IN - OUT =      -9.7656E-04

 PERCENT DISCREPANCY =           0.00     PERCENT DISCREPANCY =          -0.00






         TIME SUMMARY AT END OF TIME STEP    1 IN STRESS PERIOD    1
                    SECONDS     MINUTES      HOURS       DAYS        YEARS
                    -----------------------------------------------------------
   TIME STEP LENGTH 1.55520E+07 2.59200E+05  4320.0      180.00     0.49281    
 STRESS PERIOD TIME 1.55520E+07 2.59200E+05  4320.0      180.00     0.49281    
         TOTAL TIME 1.55520E+07 2.59200E+05  4320.0      180.00     0.49281    
1

 Run end date and time (yyyy/mm/dd hh:mm:ss): 2023/07/12 18:58:15
 Elapsed run time:  0.146 Seconds

