                                  MODFLOW-2005     
      U.S. GEOLOGICAL SURVEY MODULAR FINITE-DIFFERENCE GROUND-WATER FLOW MODEL
                            VERSION 1.12.00 2/3/2017

 LIST FILE: BASE.list
                         UNIT    2

 OPENING BASE.dis
 FILE TYPE:DIS   UNIT   11   STATUS:OLD    
 FORMAT:FORMATTED              ACCESS:SEQUENTIAL          

 OPENING BASE.bas
 FILE TYPE:BAS6   UNIT   13   STATUS:OLD    
 FORMAT:FORMATTED              ACCESS:SEQUENTIAL          

 OPENING BASE.lpf
 FILE TYPE:LPF   UNIT   15   STATUS:OLD    
 FORMAT:FORMATTED              ACCESS:SEQUENTIAL          

 OPENING BASE.oc
 FILE TYPE:OC   UNIT   14   STATUS:OLD    
 FORMAT:FORMATTED              ACCESS:SEQUENTIAL          

 OPENING BASE.pcg
 FILE TYPE:PCG   UNIT   27   STATUS:OLD    
 FORMAT:FORMATTED              ACCESS:SEQUENTIAL          

 OPENING BASE.rch
 FILE TYPE:RCH   UNIT   19   STATUS:OLD    
 FORMAT:FORMATTED              ACCESS:SEQUENTIAL          

 OPENING BASE.evt
 FILE TYPE:EVT   UNIT   22   STATUS:OLD    
 FORMAT:FORMATTED              ACCESS:SEQUENTIAL          

 OPENING BASE.wel
 FILE TYPE:WEL   UNIT   20   STATUS:OLD    
 FORMAT:FORMATTED              ACCESS:SEQUENTIAL          

 OPENING BASE.str
 FILE TYPE:STR   UNIT  118   STATUS:OLD    
 FORMAT:FORMATTED              ACCESS:SEQUENTIAL          

 OPENING BASE.cbc
 FILE TYPE:DATA(BINARY)   UNIT   53   STATUS:REPLACE
 FORMAT:BINARY                 ACCESS:SEQUENTIAL          

 OPENING BASE.hds
 FILE TYPE:DATA(BINARY)   UNIT   51   STATUS:REPLACE
 FORMAT:BINARY                 ACCESS:SEQUENTIAL          

 OPENING BASE.ddn
 FILE TYPE:DATA(BINARY)   UNIT   52   STATUS:REPLACE
 FORMAT:BINARY                 ACCESS:SEQUENTIAL          

 BAS -- BASIC PACKAGE, VERSION 7, 5/2/2005 INPUT READ FROM UNIT   13
 
 MODFLOW was compiled using mixed precision
 Precision of REAL variables:           6
 Precision of DOUBLE PRECISION variables:          15

 DISCRETIZATION INPUT DATA READ FROM UNIT   11
 # DIS package for  MODFLOW-2005, generated by Flopy.
    3 LAYERS        50 ROWS        50 COLUMNS
    1 STRESS PERIOD(S) IN SIMULATION
 MODEL TIME UNIT IS DAYS
 MODEL LENGTH UNIT IS METERS
  Confining bed flag for each layer:
   0   0   0

                     DELR =   1000.00    

                     DELC =   1000.00    



           TOP ELEVATION OF LAYER 1
 READING ON UNIT   11 WITH FORMAT: (50E15.6)           



             MODEL LAYER BOTTOM EL. FOR LAYER   1
 READING ON UNIT   11 WITH FORMAT: (50E15.6)           



             MODEL LAYER BOTTOM EL. FOR LAYER   2
 READING ON UNIT   11 WITH FORMAT: (50E15.6)           



             MODEL LAYER BOTTOM EL. FOR LAYER   3
 READING ON UNIT   11 WITH FORMAT: (50E15.6)           


 STRESS PERIOD     LENGTH       TIME STEPS     MULTIPLIER FOR DELT    SS FLAG
 ----------------------------------------------------------------------------
        1         180.0000          1                    1.000         SS

 STEADY-STATE SIMULATION



 
 # BAS6 package for  MODFLOW-2005, generated by Flopy.                           
 THE FREE FORMAT OPTION HAS BEEN SELECTED



                     BOUNDARY ARRAY FOR LAYER   1
 READING ON UNIT   13 WITH FORMAT: (50I10)             



                     BOUNDARY ARRAY FOR LAYER   2
 READING ON UNIT   13 WITH FORMAT: (50I10)             



                     BOUNDARY ARRAY FOR LAYER   3
 READING ON UNIT   13 WITH FORMAT: (50I10)             

 AQUIFER HEAD WILL BE SET TO  -999.99     AT ALL NO-FLOW NODES (IBOUND=0).



                       INITIAL HEAD FOR LAYER   1
 READING ON UNIT   13 WITH FORMAT: (50E15.6)           



                       INITIAL HEAD FOR LAYER   2
 READING ON UNIT   13 WITH FORMAT: (50E15.6)           



                       INITIAL HEAD FOR LAYER   3
 READING ON UNIT   13 WITH FORMAT: (50E15.6)           
 # OC package for  MODFLOW-2005, generated by Flopy.

 OUTPUT CONTROL IS SPECIFIED ONLY AT TIME STEPS FOR WHICH OUTPUT IS DESIRED
 COMPACT CELL-BY-CELL BUDGET FILES WILL BE WRITTEN
 AUXILIARY DATA WILL BE SAVED IN CELL-BY-CELL BUDGET FILES
 HEAD PRINT FORMAT CODE IS   0    DRAWDOWN PRINT FORMAT CODE IS   0
 HEADS WILL BE SAVED ON UNIT   51    DRAWDOWNS WILL BE SAVED ON UNIT   52

 LPF -- LAYER-PROPERTY FLOW PACKAGE, VERSION 7, 5/2/2005
         INPUT READ FROM UNIT   15
 # LPF package for  MODFLOW-2005, generated by Flopy.
 CELL-BY-CELL FLOWS WILL BE SAVED ON UNIT   53
 HEAD AT CELLS THAT CONVERT TO DRY= -1.00000E+30
 No named parameters

   LAYER FLAGS:
 LAYER       LAYTYP        LAYAVG         CHANI        LAYVKA        LAYWET
 ---------------------------------------------------------------------------
    1             1             0     0.000E+00             0             0
    2             1             0     0.000E+00             0             0
    3             1             0     0.000E+00             0             0

   INTERPRETATION OF LAYER FLAGS:
                        INTERBLOCK     HORIZONTAL    DATA IN
         LAYER TYPE   TRANSMISSIVITY   ANISOTROPY   ARRAY VKA   WETTABILITY
 LAYER      (LAYTYP)      (LAYAVG)       (CHANI)      (LAYVKA)      (LAYWET)
 ---------------------------------------------------------------------------
    1   CONVERTIBLE      HARMONIC      VARIABLE    VERTICAL K  NON-WETTABLE
    2   CONVERTIBLE      HARMONIC      VARIABLE    VERTICAL K  NON-WETTABLE
    3   CONVERTIBLE      HARMONIC      VARIABLE    VERTICAL K  NON-WETTABLE

 WETTING CAPABILITY IS NOT ACTIVE IN ANY LAYER

    HYD. COND. ALONG ROWS =   50.0000     FOR LAYER   1

   HORIZ. ANI. (COL./ROW) =   1.00000     FOR LAYER   1



                VERTICAL HYD. COND. FOR LAYER   1
 READING ON UNIT   15 WITH FORMAT: (50E15.6)           

    HYD. COND. ALONG ROWS =   50.0000     FOR LAYER   2

   HORIZ. ANI. (COL./ROW) =   1.00000     FOR LAYER   2



                VERTICAL HYD. COND. FOR LAYER   2
 READING ON UNIT   15 WITH FORMAT: (50E15.6)           

    HYD. COND. ALONG ROWS =   50.0000     FOR LAYER   3

   HORIZ. ANI. (COL./ROW) =   1.00000     FOR LAYER   3



                VERTICAL HYD. COND. FOR LAYER   3
 READING ON UNIT   15 WITH FORMAT: (50E15.6)           

 WEL -- WELL PACKAGE, VERSION 7, 5/2/2005 INPUT READ FROM UNIT   20
 # WEL package for  MODFLOW-2005, generated by Flopy.
 No named parameters
 MAXIMUM OF      2 ACTIVE WELLS AT ONE TIME


     0 Well parameters

 EVT -- EVAPOTRANSPIRATION PACKAGE, VERSION 7, 5/2/2005
         INPUT READ FROM UNIT   22
 # EVT package for  MODFLOW-2005, generated by Flopy.
 No named parameters
 OPTION 3 -- EVAPOTRANSPIRATION FROM HIGHEST ACTIVE NODE IN EACH VERTICAL COLUMN
 CELL-BY-CELL FLOWS WILL BE SAVED ON UNIT   53


     0 Evapotranspiration parameters

 RCH -- RECHARGE PACKAGE, VERSION 7, 5/2/2005 INPUT READ FROM UNIT   19
 # RCH package for  MODFLOW-2005, generated by Flopy.
 No named parameters
 OPTION 3 -- RECHARGE TO HIGHEST ACTIVE NODE IN EACH VERTICAL COLUMN


     0 Recharge parameters

 STR -- STREAM PACKAGE, VERSION 7, 5/2/2005 INPUT READ FROM UNIT  118
 # STR package for  MODFLOW-2005, generated by Flopy.
 No named parameters
 MAXIMUM OF     49 ACTIVE STREAM NODES AT ONE TIME
 NUMBER OF STREAM SEGMENTS IS      3
 NUMBER OF STREAM TRIBUTARIES IS      2
 STREAM STAGES WILL BE CALCULATED USING A CONSTANT OF 86400.0000
 CELL BUDGETS WILL BE SAVED ON UNITS   53 AND   53


     0 Stream parameters

 PCG -- CONJUGATE-GRADIENT SOLUTION PACKAGE, VERSION 7, 5/2/2005
 # PCG package for  MODFLOW-2005, generated by Flopy.
 MAXIMUM OF     50 CALLS OF SOLUTION ROUTINE
 MAXIMUM OF     30 INTERNAL ITERATIONS PER CALL TO SOLUTION ROUTINE
 MATRIX PRECONDITIONING TYPE :    1



                                    SOLUTION BY THE CONJUGATE-GRADIENT METHOD
                                   -------------------------------------------
                    MAXIMUM NUMBER OF CALLS TO PCG ROUTINE =       50
                        MAXIMUM ITERATIONS PER CALL TO PCG =       30
                               MATRIX PRECONDITIONING TYPE =        1
        RELAXATION FACTOR (ONLY USED WITH PRECOND. TYPE 1) =    0.10000E+01
 PARAMETER OF POLYNOMIAL PRECOND. = 2 (2) OR IS CALCULATED :        0
                         HEAD CHANGE CRITERION FOR CLOSURE =    0.10000E-04
                     RESIDUAL CHANGE CRITERION FOR CLOSURE =    0.10000E-04
            PCG HEAD AND RESIDUAL CHANGE PRINTOUT INTERVAL =      999
     PRINTING FROM SOLVER IS LIMITED(1) OR SUPPRESSED (>1) =        3
                            STEADY-STATE DAMPING PARAMETER =    0.10000E+01
                               TRANSIENT DAMPING PARAMETER =    0.10000E+01
1
                            STRESS PERIOD NO.    1, LENGTH =   180.0000    
                            -----------------------------------------------

                              NUMBER OF TIME STEPS =     1

                               MULTIPLIER FOR DELT =     1.000

                            INITIAL TIME STEP SIZE =   180.0000    

 WELL NO.  LAYER   ROW   COL   STRESS RATE         
 --------------------------------------------------
      1      3     21     38      -1810.    
      2      1     19     19      -5143.    

      2 WELLS



                         ET SURFACE
 READING ON UNIT   22 WITH FORMAT: (50E15.6)           



            EVAPOTRANSPIRATION RATE
 READING ON UNIT   22 WITH FORMAT: (50E15.6)           



                   EXTINCTION DEPTH
 READING ON UNIT   22 WITH FORMAT: (50E15.6)           



                           RECHARGE
 READING ON UNIT   19 WITH FORMAT: (50E15.6)           

     49 STREAM REACHES
 
 SOLVING FOR HEAD 

 OUTPUT CONTROL FOR STRESS PERIOD    1   TIME STEP    1
    SAVE HEAD FOR ALL LAYERS
    SAVE DRAWDOWN FOR ALL LAYERS
    SAVE BUDGET
    PRINT HEAD FOR ALL LAYERS
    PRINT BUDGET
 UBDSV2 SAVING "   CONSTANT HEAD" ON UNIT  53 AT TIME STEP  1, STRESS PERIOD   1
 UBDSV1 SAVING "FLOW RIGHT FACE " ON UNIT  53 AT TIME STEP  1, STRESS PERIOD   1
 UBDSV1 SAVING "FLOW FRONT FACE " ON UNIT  53 AT TIME STEP  1, STRESS PERIOD   1
 UBDSV1 SAVING "FLOW LOWER FACE " ON UNIT  53 AT TIME STEP  1, STRESS PERIOD   1
 UBDSV3 SAVING "              ET" ON UNIT  53 AT TIME STEP  1, STRESS PERIOD   1
 UBDSV4 SAVING "  STREAM LEAKAGE" ON UNIT  53 AT TIME STEP  1, STRESS PERIOD   1
 UBDSV4 SAVING "STREAM FLOW OUT " ON UNIT  53 AT TIME STEP  1, STRESS PERIOD   1
1
              HEAD IN LAYER   1 AT END OF TIME STEP   1 IN STRESS PERIOD    1
  ---------------------------------------------------------------------------

            1           2           3           4           5           6           7           8           9          10
           11          12          13          14          15          16          17          18          19          20
           21          22          23          24          25          26          27          28          29          30
           31          32          33          34          35          36          37          38          39          40
           41          42          43          44          45          46          47          48          49          50
 ........................................................................................................................
   1  -1000.0     -1000.0     -1000.0     -1000.0     -1000.0     -1000.0       72.87       72.84       72.79       72.73    
        72.66       72.61       72.55       72.49       72.41       72.33       72.25       72.16       72.08       72.00    
        71.93       71.85       71.78       71.70       71.63       71.56       71.49       71.42       71.35       71.28    
        71.22       71.15       71.08       71.02       70.95       70.89       70.82       70.76       70.69       70.63    
        70.57       70.50       70.44       70.38       70.31       70.25       70.19       70.13       70.06       70.00    
   2  -1000.0     -1000.0     -1000.0     -1000.0     -1000.0       72.91       72.88       72.84       72.78       72.72    
        72.67       72.62       72.56       72.49       72.41       72.33       72.25       72.16       72.08       72.00    
        71.93       71.85       71.78       71.70       71.63       71.56       71.49       71.42       71.35       71.28    
        71.21       71.15       71.08       71.02       70.95       70.89       70.82       70.76       70.69       70.63    
        70.57       70.50       70.44       70.38       70.31       70.25       70.19       70.13       70.06       70.00    
   3  -1000.0     -1000.0     -1000.0     -1000.0       72.96       72.93       72.89       72.84       72.78       72.73    
        72.68       72.62       72.56       72.49       72.41       72.33       72.24       72.16       72.08       72.00    
        71.92       71.85       71.77       71.70       71.63       71.56       71.49       71.42       71.35       71.28    
        71.21       71.15       71.08       71.01       70.95       70.88       70.82       70.76       70.69       70.63    
        70.56       70.50       70.44       70.38       70.31       70.25       70.19       70.13       70.06       70.00    
   4  -1000.0     -1000.0     -1000.0       73.01       72.98       72.94       72.89       72.84       72.79       72.74    
        72.69       72.63       72.56       72.49       72.41       72.32       72.24       72.16       72.08       72.00    
        71.92       71.85       71.77       71.70       71.63       71.55       71.48       71.41       71.35       71.28    
        71.21       71.14       71.08       71.01       70.95       70.88       70.82       70.75       70.69       70.63    
        70.56       70.50       70.44       70.38       70.31       70.25       70.19       70.13       70.06       70.00    
   5  -1000.0     -1000.0       73.05       73.02       72.98       72.94       72.89       72.85       72.80       72.75    
        72.69       72.63       72.56       72.49       72.41       72.32       72.24       72.15       72.07       71.99    
        71.92       71.84       71.77       71.69       71.62       71.55       71.48       71.41       71.34       71.28    
        71.21       71.14       71.08       71.01       70.95       70.88       70.82       70.75       70.69       70.63    
        70.56       70.50       70.44       70.38       70.31       70.25       70.19       70.13       70.06       70.00    
   6  -1000.0       73.08       73.06       73.03       72.99       72.94       72.90       72.86       72.81       72.75    
        72.69       72.63       72.56       72.49       72.40       72.32       72.23       72.15       72.07       71.99    
        71.91       71.83       71.76       71.69       71.62       71.55       71.48       71.41       71.34       71.27    
        71.21       71.14       71.07       71.01       70.94       70.88       70.82       70.75       70.69       70.63    
        70.56       70.50       70.44       70.37       70.31       70.25       70.19       70.13       70.06       70.00    
   7    73.10       73.08       73.06       73.03       72.98       72.95       72.91       72.86       72.81       72.76    
        72.70       72.63       72.56       72.48       72.40       72.31       72.23       72.14       72.06       71.98    
        71.90       71.83       71.75       71.68       71.61       71.54       71.47       71.40       71.34       71.27    
        71.20       71.14       71.07       71.01       70.94       70.88       70.81       70.75       70.69       70.62    
        70.56       70.50       70.44       70.37       70.31       70.25       70.19       70.12       70.06       70.00    
   8    73.10       73.08       73.06       73.02       72.99       72.95       72.91       72.87       72.82       72.76    
        72.70       72.63       72.56       72.48       72.39       72.30       72.22       72.13       72.05       71.97    
        71.89       71.82       71.74       71.67       71.60       71.53       71.46       71.40       71.33       71.26    
        71.20       71.13       71.07       71.00       70.94       70.88       70.81       70.75       70.69       70.62    
        70.56       70.50       70.44       70.37       70.31       70.25       70.19       70.12       70.06       70.00    
   9    73.09       73.08       73.05       73.03       73.00       72.96       72.92       72.87       72.82       72.76    
        72.70       72.63       72.55       72.47       72.39       72.29       72.21       72.12       72.04       71.95    
        71.88       71.80       71.73       71.66       71.59       71.52       71.46       71.39       71.33       71.26    
        71.20       71.13       71.07       71.00       70.94       70.87       70.81       70.75       70.68       70.62    
        70.56       70.50       70.43       70.37       70.31       70.25       70.19       70.12       70.06       70.00    
  10    73.09       73.07       73.05       73.03       73.00       72.96       72.92       72.87       72.82       72.76    
        72.70       72.62       72.55       72.46       72.38       72.28       72.19       72.10       72.02       71.94    
        71.86       71.79       71.72       71.65       71.58       71.52       71.45       71.38       71.32       71.26    
        71.19       71.13       71.06       71.00       70.94       70.87       70.81       70.75       70.68       70.62    
        70.56       70.50       70.43       70.37       70.31       70.25       70.19       70.12       70.06       70.00    
  11    73.08       73.07       73.05       73.03       73.00       72.97       72.92       72.88       72.82       72.76    
        72.69       72.62       72.54       72.45       72.36       72.27       72.18       72.09       72.00       71.92    
        71.85       71.77       71.70       71.64       71.57       71.51       71.44       71.38       71.31       71.25    
        71.19       71.12       71.06       71.00       70.93       70.87       70.81       70.74       70.68       70.62    
        70.56       70.49       70.43       70.37       70.31       70.25       70.19       70.12       70.06       70.00    
  12    73.08       73.07       73.06       73.03       73.00       72.97       72.93       72.88       72.82       72.76    
        72.69       72.61       72.53       72.44       72.35       72.25       72.16       72.07       71.98       71.90    
        71.82       71.75       71.69       71.62       71.56       71.50       71.43       71.37       71.31       71.25    
        71.18       71.12       71.06       70.99       70.93       70.87       70.81       70.74       70.68       70.62    
        70.56       70.49       70.43       70.37       70.31       70.25       70.19       70.12       70.06       70.00    
  13    73.08       73.07       73.06       73.04       73.01       72.97       72.93       72.88       72.82       72.76    
        72.68       72.61       72.52       72.43       72.33       72.23       72.13       72.04       71.95       71.87    
        71.80       71.73       71.67       71.61       71.55       71.48       71.42       71.36       71.30       71.24    
        71.18       71.12       71.05       70.99       70.93       70.87       70.80       70.74       70.68       70.62    
        70.55       70.49       70.43       70.37       70.31       70.25       70.18       70.12       70.06       70.00    
  14    73.08       73.08       73.06       73.04       73.01       72.97       72.93       72.88       72.82       72.75    
        72.68       72.60       72.51       72.42       72.31       72.21       72.10       72.01       71.92       71.84    
        71.77       71.71       71.65       71.59       71.53       71.47       71.42       71.36       71.30       71.24    
        71.18       71.11       71.05       70.99       70.93       70.86       70.80       70.74       70.68       70.62    
        70.55       70.49       70.43       70.37       70.31       70.25       70.18       70.12       70.06       70.00    
  15    73.09       73.08       73.06       73.04       73.01       72.97       72.93       72.88       72.82       72.75    
        72.68       72.59       72.50       72.40       72.29       72.18       72.07       71.96       71.87       71.79    
        71.73       71.68       71.62       71.57       71.52       71.46       71.41       71.35       71.29       71.23    
        71.17       71.11       71.05       70.99       70.93       70.86       70.80       70.74       70.68       70.61    
        70.55       70.49       70.43       70.37       70.31       70.25       70.18       70.12       70.06       70.00    
  16    73.09       73.08       73.07       73.05       73.02       72.98       72.93       72.88       72.82       72.75    
        72.67       72.59       72.49       72.39       72.27       72.15       72.03       71.91       71.81       71.74    
        71.69       71.65       71.60       71.56       71.51       71.46       71.40       71.35       71.29       71.23    
        71.17       71.11       71.05       70.99       70.93       70.86       70.80       70.74       70.68       70.61    
        70.55       70.49       70.43       70.37       70.31       70.25       70.18       70.12       70.06       70.00    
  17    73.09       73.09       73.07       73.05       73.02       72.98       72.94       72.88       72.82       72.75    
        72.67       72.58       72.49       72.38       72.25       72.12       71.98       71.84       71.72       71.67    
        71.64       71.61       71.58       71.54       71.50       71.45       71.40       71.34       71.29       71.23    
        71.17       71.11       71.05       70.99       70.93       70.86       70.80       70.74       70.68       70.61    
        70.55       70.49       70.43       70.37       70.31       70.25       70.18       70.12       70.06       70.00    
  18    73.10       73.09       73.08       73.05       73.02       72.99       72.94       72.89       72.82       72.75    
        72.67       72.58       72.48       72.37       72.24       72.10       71.93       71.75       71.56       71.58    
        71.59       71.59       71.57       71.53       71.49       71.45       71.40       71.34       71.29       71.23    
        71.17       71.11       71.05       70.99       70.93       70.86       70.80       70.74       70.68       70.62    
        70.55       70.49       70.43       70.37       70.31       70.25       70.18       70.12       70.06       70.00    
  19    73.10       73.10       73.08       73.06       73.03       72.99       72.95       72.89       72.83       72.76    
        72.68       72.59       72.49       72.37       72.24       72.09       71.90       71.66       71.21       71.48    
        71.56       71.58       71.56       71.53       71.49       71.45       71.40       71.35       71.29       71.23    
        71.17       71.11       71.05       70.99       70.93       70.87       70.80       70.74       70.68       70.62    
        70.55       70.49       70.43       70.37       70.31       70.25       70.19       70.12       70.06       70.00    
  20    73.11       73.10       73.09       73.07       73.04       73.00       72.95       72.90       72.84       72.77    
        72.69       72.60       72.49       72.38       72.25       72.11       71.94       71.76       71.57       71.59    
        71.60       71.60       71.58       71.54       71.50       71.46       71.41       71.35       71.30       71.24    
        71.18       71.12       71.06       70.99       70.93       70.87       70.81       70.74       70.68       70.62    
        70.56       70.49       70.43       70.37       70.31       70.25       70.19       70.12       70.06       70.00    
  21    73.12       73.11       73.10       73.07       73.04       73.01       72.96       72.91       72.84       72.77    
        72.70       72.61       72.51       72.40       72.28       72.14       72.00       71.86       71.74       71.69    
        71.66       71.63       71.60       71.56       71.52       71.47       71.41       71.36       71.30       71.24    
        71.18       71.12       71.06       71.00       70.94       70.87       70.81       70.75       70.68       70.62    
        70.56       70.50       70.44       70.37       70.31       70.25       70.19       70.13       70.06       70.00    
  22    73.12       73.12       73.10       73.08       73.05       73.01       72.97       72.92       72.86       72.79    
        72.71       72.62       72.53       72.42       72.31       72.18       72.06       71.94       71.84       71.77    
        71.72       71.67       71.63       71.58       71.53       71.48       71.43       71.37       71.31       71.25    
        71.19       71.13       71.07       71.00       70.94       70.88       70.81       70.75       70.69       70.63    
        70.56       70.50       70.44       70.38       70.31       70.25       70.19       70.13       70.06       70.00    
  23    73.13       73.13       73.11       73.09       73.06       73.02       72.98       72.93       72.87       72.80    
        72.72       72.64       72.55       72.45       72.34       72.22       72.11       72.01       71.91       71.83    
        71.77       71.71       71.66       71.61       71.55       71.50       71.44       71.38       71.32       71.26    
        71.20       71.14       71.08       71.01       70.95       70.88       70.82       70.76       70.69       70.63    
        70.57       70.50       70.44       70.38       70.32       70.25       70.19       70.13       70.06       70.00    
  24    73.14       73.13       73.12       73.10       73.07       73.03       72.99       72.94       72.88       72.81    
        72.74       72.66       72.57       72.47       72.37       72.26       72.16       72.06       71.97       71.89    
        71.82       71.75       71.69       71.63       71.58       71.52       71.46       71.40       71.34       71.27    
        71.21       71.15       71.08       71.02       70.96       70.89       70.83       70.76       70.70       70.64    
        70.57       70.51       70.45       70.38       70.32       70.26       70.19       70.13       70.06       70.00    
  25    73.15       73.14       73.13       73.11       73.08       73.04       73.00       72.95       72.89       72.83    
        72.76       72.68       72.59       72.50       72.40       72.30       72.20       72.10       72.01       71.93    
        71.86       71.79       71.72       71.66       71.60       71.54       71.47       71.41       71.35       71.29    
        71.22       71.16       71.09       71.03       70.96       70.90       70.83       70.77       70.71       70.64    
        70.58       70.51       70.45       70.39       70.32       70.26       70.20       70.13       70.07       70.00    
  26    73.16       73.15       73.14       73.12       73.09       73.05       73.01       72.96       72.91       72.84    
        72.77       72.70       72.61       72.52       72.43       72.33       72.23       72.14       72.05       71.97    
        71.89       71.82       71.75       71.68       71.62       71.56       71.49       71.43       71.36       71.30    
        71.24       71.17       71.10       71.04       70.97       70.91       70.84       70.78       70.71       70.65    
        70.58       70.52       70.46       70.39       70.33       70.26       70.20       70.13       70.07       70.00    
  27    73.17       73.16       73.15       73.13       73.10       73.06       73.02       72.98       72.92       72.86    
        72.79       72.72       72.63       72.55       72.45       72.36       72.26       72.17       72.08       72.00    
        71.92       71.85       71.78       71.71       71.64       71.57       71.51       71.44       71.38       71.31    
        71.24       71.18       71.11       71.05       70.98       70.91       70.85       70.78       70.72       70.65    
        70.59       70.52       70.46       70.39       70.33       70.26       70.20       70.13       70.07       70.00    
  28    73.18       73.17       73.16       73.14       73.11       73.08       73.03       72.99       72.93       72.87    
        72.81       72.73       72.65       72.57       72.48       72.38       72.29       72.20       72.11       72.03    
        71.95       71.87       71.80       71.73       71.66       71.59       71.52       71.46       71.39       71.32    
        71.25       71.19       71.12       71.05       70.99       70.92       70.85       70.79       70.72       70.66    
        70.59       70.52       70.46       70.39       70.33       70.26       70.20       70.13       70.07       70.00    
  29    73.19       73.18       73.17       73.15       73.12       73.09       73.05       73.00       72.95       72.89    
        72.82       72.75       72.67       72.59       72.50       72.41       72.31       72.22       72.14       72.05    
        71.97       71.90       71.82       71.75       71.68       71.61       71.54       71.47       71.40       71.33    
        71.26       71.20       71.13       71.06       70.99       70.93       70.86       70.79       70.73       70.66    
        70.59       70.53       70.46       70.40       70.33       70.27       70.20       70.13       70.07       70.00    
  30    73.20       73.19       73.18       73.16       73.13       73.10       73.06       73.01       72.96       72.90    
        72.84       72.77       72.69       72.61       72.52       72.43       72.34       72.25       72.16       72.08    
        72.00       71.92       71.84       71.77       71.70       71.62       71.55       71.48       71.41       71.34    
        71.27       71.21       71.14       71.07       71.00       70.93       70.87       70.80       70.73       70.66    
        70.60       70.53       70.46       70.40       70.33       70.27       70.20       70.13       70.07       70.00    
  31    73.20       73.20       73.18       73.17       73.14       73.11       73.07       73.02       72.97       72.91    
        72.85       72.78       72.71       72.62       72.54       72.45       72.36       72.27       72.18       72.10    
        72.02       71.94       71.86       71.79       71.71       71.64       71.57       71.50       71.42       71.35    
        71.28       71.21       71.15       71.08       71.01       70.94       70.87       70.80       70.74       70.67    
        70.60       70.53       70.47       70.40       70.33       70.27       70.20       70.13       70.07       70.00    
  32    73.21       73.21       73.19       73.17       73.15       73.12       73.08       73.03       72.98       72.93    
        72.86       72.80       72.72       72.64       72.55       72.46       72.37       72.29       72.20       72.11    
        72.03       71.96       71.88       71.80       71.73       71.65       71.58       71.51       71.44       71.36    
        71.29       71.22       71.15       71.08       71.01       70.95       70.88       70.81       70.74       70.67    
        70.61       70.54       70.47       70.40       70.34       70.27       70.20       70.13       70.07       70.00    
  33    73.22       73.21       73.20       73.18       73.16       73.13       73.09       73.04       72.99       72.94    
        72.88       72.81       72.73       72.65       72.57       72.48       72.39       72.30       72.22       72.13    
        72.05       71.97       71.89       71.82       71.74       71.67       71.59       71.52       71.45       71.37    
        71.30       71.23       71.16       71.09       71.02       70.95       70.88       70.81       70.75       70.68    
        70.61       70.54       70.47       70.41       70.34       70.27       70.20       70.14       70.07       70.00    
  34    73.23       73.22       73.21       73.19       73.17       73.13       73.10       73.05       73.00       72.95    
        72.89       72.82       72.75       72.67       72.58       72.49       72.40       72.32       72.23       72.15    
        72.07       71.99       71.91       71.83       71.75       71.68       71.60       71.53       71.46       71.38    
        71.31       71.24       71.17       71.10       71.03       70.96       70.89       70.82       70.75       70.68    
        70.61       70.54       70.48       70.41       70.34       70.27       70.20       70.14       70.07       70.00    
  35    73.23       73.23       73.22       73.20       73.17       73.14       73.10       73.06       73.01       72.96    
        72.90       72.83       72.76       72.68       72.60       72.51       72.42       72.33       72.24       72.16    
        72.08       72.00       71.92       71.84       71.77       71.69       71.61       71.54       71.47       71.39    
        71.32       71.25       71.18       71.11       71.03       70.96       70.89       70.82       70.76       70.69    
        70.62       70.55       70.48       70.41       70.34       70.27       70.21       70.14       70.07       70.00    
  36    73.24       73.24       73.22       73.20       73.18       73.15       73.11       73.07       73.02       72.97    
        72.91       72.84       72.77       72.69       72.61       72.52       72.43       72.34       72.26       72.17    
        72.09       72.01       71.93       71.85       71.78       71.70       71.62       71.55       71.48       71.40    
        71.33       71.26       71.18       71.11       71.04       70.97       70.90       70.83       70.76       70.69    
        70.62       70.55       70.48       70.41       70.34       70.28       70.21       70.14       70.07       70.00    
  37    73.25       73.24       73.23       73.21       73.19       73.15       73.12       73.08       73.03       72.97    
        72.91       72.85       72.78       72.70       72.62       72.53       72.44       72.35       72.27       72.18    
        72.10       72.02       71.94       71.86       71.79       71.71       71.63       71.56       71.48       71.41    
        71.34       71.26       71.19       71.12       71.05       70.98       70.90       70.83       70.76       70.69    
        70.62       70.55       70.49       70.42       70.35       70.28       70.21       70.14       70.07       70.00    
  38    73.25       73.25       73.23       73.21       73.19       73.16       73.12       73.08       73.03       72.98    
        72.92       72.85       72.78       72.71       72.62       72.54       72.45       72.36       72.28       72.19    
        72.11       72.03       71.95       71.87       71.80       71.72       71.64       71.57       71.49       71.42    
        71.34       71.27       71.20       71.12       71.05       70.98       70.91       70.84       70.77       70.70    
        70.63       70.56       70.49       70.42       70.35       70.28       70.21       70.14       70.07       70.00    
  39    73.26       73.25       73.24       73.22       73.19       73.16       73.13       73.08       73.04       72.98    
        72.92       72.86       72.79       72.71       72.63       72.54       72.46       72.37       72.29       72.20    
        72.12       72.04       71.96       71.88       71.80       71.73       71.65       71.57       71.50       71.42    
        71.35       71.28       71.20       71.13       71.06       70.99       70.91       70.84       70.77       70.70    
        70.63       70.56       70.49       70.42       70.35       70.28       70.21       70.14       70.07       70.00    
  40    73.26       73.26       73.24       73.22       73.20       73.17       73.13       73.09       73.04       72.99    
        72.93       72.86       72.79       72.72       72.64       72.55       72.46       72.38       72.29       72.21    
        72.13       72.05       71.97       71.89       71.81       71.73       71.66       71.58       71.51       71.43    
        71.36       71.28       71.21       71.14       71.06       70.99       70.92       70.85       70.78       70.70    
        70.63       70.56       70.49       70.42       70.35       70.28       70.21       70.14       70.07       70.00    
  41    73.27       73.26       73.24       73.22       73.20       73.17       73.13       73.09       73.04       72.99    
        72.93       72.87       72.80       72.72       72.64       72.56       72.47       72.38       72.30       72.22    
        72.14       72.06       71.98       71.90       71.82       71.74       71.66       71.59       71.51       71.44    
        71.36       71.29       71.21       71.14       71.07       70.99       70.92       70.85       70.78       70.71    
        70.64       70.57       70.49       70.42       70.35       70.28       70.21       70.14       70.07       70.00    
  42    73.28       73.27       73.25       73.23       73.20       73.17       73.13       73.09       73.04       72.99    
        72.93       72.87       72.80       72.73       72.65       72.56       72.47       72.39       72.31       72.22    
        72.14       72.06       71.98       71.90       71.82       71.75       71.67       71.59       71.52       71.44    
        71.37       71.29       71.22       71.14       71.07       71.00       70.93       70.85       70.78       70.71    
        70.64       70.57       70.50       70.43       70.35       70.28       70.21       70.14       70.07       70.00    
  43    73.29       73.28       73.26       73.22       73.20       73.17       73.13       73.09       73.04       72.99    
        72.93       72.87       72.80       72.73       72.65       72.56       72.48       72.39       72.31       72.23    
        72.15       72.07       71.99       71.91       71.83       71.75       71.67       71.60       71.52       71.45    
        71.37       71.30       71.22       71.15       71.07       71.00       70.93       70.86       70.78       70.71    
        70.64       70.57       70.50       70.43       70.36       70.28       70.21       70.14       70.07       70.00    
  44    73.30       73.29       73.26       73.23       73.19       73.16       73.13       73.09       73.04       72.99    
        72.93       72.87       72.80       72.73       72.65       72.57       72.48       72.40       72.31       72.23    
        72.15       72.07       71.99       71.91       71.83       71.76       71.68       71.60       71.53       71.45    
        71.37       71.30       71.23       71.15       71.08       71.00       70.93       70.86       70.79       70.71    
        70.64       70.57       70.50       70.43       70.36       70.29       70.21       70.14       70.07       70.00    
  45  -1000.0       73.28       73.26       73.24       73.20       73.16       73.12       73.08       73.04       72.99    
        72.93       72.87       72.80       72.73       72.65       72.57       72.48       72.40       72.32       72.23    
        72.15       72.07       72.00       71.92       71.84       71.76       71.68       71.61       71.53       71.45    
        71.38       71.30       71.23       71.15       71.08       71.01       70.93       70.86       70.79       70.72    
        70.64       70.57       70.50       70.43       70.36       70.29       70.21       70.14       70.07       70.00    
  46  -1000.0     -1000.0       73.26       73.23       73.20       73.16       73.11       73.07       73.03       72.98    
        72.93       72.87       72.80       72.73       72.65       72.57       72.49       72.40       72.32       72.24    
        72.16       72.08       72.00       71.92       71.84       71.76       71.69       71.61       71.53       71.46    
        71.38       71.31       71.23       71.16       71.08       71.01       70.94       70.86       70.79       70.72    
        70.65       70.57       70.50       70.43       70.36       70.29       70.22       70.14       70.07       70.00    
  47  -1000.0     -1000.0     -1000.0       73.22       73.20       73.16       73.12       73.06       73.02       72.97    
        72.92       72.86       72.80       72.73       72.65       72.57       72.49       72.40       72.32       72.24    
        72.16       72.08       72.00       71.92       71.84       71.77       71.69       71.61       71.53       71.46    
        71.38       71.31       71.23       71.16       71.08       71.01       70.94       70.86       70.79       70.72    
        70.65       70.57       70.50       70.43       70.36       70.29       70.22       70.14       70.07       70.00    
  48  -1000.0     -1000.0     -1000.0     -1000.0       73.18       73.15       73.11       73.07       73.01       72.97    
        72.92       72.86       72.80       72.73       72.65       72.57       72.49       72.40       72.32       72.24    
        72.16       72.08       72.00       71.92       71.84       71.77       71.69       71.61       71.54       71.46    
        71.38       71.31       71.23       71.16       71.09       71.01       70.94       70.87       70.79       70.72    
        70.65       70.58       70.50       70.43       70.36       70.29       70.22       70.14       70.07       70.00    
  49  -1000.0     -1000.0     -1000.0     -1000.0     -1000.0       73.14       73.11       73.07       73.02       72.95    
        72.91       72.85       72.79       72.73       72.65       72.57       72.49       72.41       72.32       72.24    
        72.16       72.08       72.00       71.92       71.85       71.77       71.69       71.61       71.54       71.46    
        71.38       71.31       71.23       71.16       71.09       71.01       70.94       70.87       70.79       70.72    
        70.65       70.58       70.50       70.43       70.36       70.29       70.22       70.14       70.07       70.00    
  50  -1000.0     -1000.0     -1000.0     -1000.0     -1000.0     -1000.0       73.10       73.07       73.02       72.96    
        72.90       72.85       72.79       72.73       72.65       72.57       72.49       72.41       72.32       72.24    
        72.16       72.08       72.00       71.93       71.85       71.77       71.69       71.61       71.54       71.46    
        71.39       71.31       71.24       71.16       71.09       71.01       70.94       70.87       70.79       70.72    
        70.65       70.58       70.50       70.43       70.36       70.29       70.22       70.14       70.07       70.00    
1
              HEAD IN LAYER   2 AT END OF TIME STEP   1 IN STRESS PERIOD    1
  ---------------------------------------------------------------------------

            1           2           3           4           5           6           7           8           9          10
           11          12          13          14          15          16          17          18          19          20
           21          22          23          24          25          26          27          28          29          30
           31          32          33          34          35          36          37          38          39          40
           41          42          43          44          45          46          47          48          49          50
 ........................................................................................................................
   1  -1000.0     -1000.0     -1000.0     -1000.0     -1000.0     -1000.0     -1000.0     -1000.0       72.78       72.73    
        72.66       72.61       72.55       72.49       72.41       72.33       72.25       72.16       72.08       72.00    
        71.93       71.85       71.77       71.70       71.63       71.55       71.48       71.41       71.34       71.27    
        71.20       71.14       71.07       71.00       70.94       70.87       70.81       70.74       70.68       70.62    
        70.55       70.49       70.43       70.37       70.31       70.24       70.18       70.12       70.06       70.00    
   2  -1000.0     -1000.0     -1000.0     -1000.0     -1000.0     -1000.0     -1000.0       72.84       72.78       72.72    
        72.67       72.62       72.56       72.49       72.41       72.33       72.25       72.16       72.08       72.00    
        71.93       71.85       71.77       71.70       71.62       71.55       71.48       71.41       71.34       71.27    
        71.20       71.14       71.07       71.00       70.94       70.87       70.81       70.74       70.68       70.62    
        70.55       70.49       70.43       70.37       70.31       70.24       70.18       70.12       70.06       70.00    
   3  -1000.0     -1000.0     -1000.0     -1000.0     -1000.0     -1000.0       72.89       72.84       72.78       72.73    
        72.68       72.62       72.56       72.49       72.41       72.33       72.24       72.16       72.08       72.00    
        71.92       71.85       71.77       71.70       71.62       71.55       71.48       71.41       71.34       71.27    
        71.20       71.13       71.07       71.00       70.94       70.87       70.81       70.74       70.68       70.62    
        70.55       70.49       70.43       70.37       70.31       70.24       70.18       70.12       70.06       70.00    
   4  -1000.0     -1000.0     -1000.0     -1000.0     -1000.0       72.94       72.89       72.84       72.79       72.74    
        72.69       72.63       72.56       72.49       72.41       72.32       72.24       72.16       72.08       72.00    
        71.92       71.84       71.77       71.69       71.62       71.55       71.48       71.40       71.34       71.27    
        71.20       71.13       71.07       71.00       70.93       70.87       70.80       70.74       70.68       70.61    
        70.55       70.49       70.43       70.37       70.31       70.24       70.18       70.12       70.06       70.00    
   5  -1000.0     -1000.0     -1000.0     -1000.0       72.98       72.94       72.89       72.85       72.80       72.75    
        72.69       72.63       72.56       72.49       72.41       72.32       72.24       72.15       72.07       71.99    
        71.91       71.84       71.76       71.69       71.61       71.54       71.47       71.40       71.33       71.26    
        71.20       71.13       71.06       71.00       70.93       70.87       70.80       70.74       70.68       70.61    
        70.55       70.49       70.43       70.37       70.30       70.24       70.18       70.12       70.06       70.00    
   6  -1000.0     -1000.0     -1000.0       73.03       72.99       72.94       72.90       72.86       72.81       72.75    
        72.69       72.63       72.56       72.49       72.40       72.32       72.23       72.15       72.07       71.99    
        71.91       71.83       71.75       71.68       71.61       71.54       71.47       71.40       71.33       71.26    
        71.19       71.13       71.06       70.99       70.93       70.86       70.80       70.74       70.67       70.61    
        70.55       70.49       70.43       70.36       70.30       70.24       70.18       70.12       70.06       70.00    
   7  -1000.0     -1000.0       73.06       73.03       72.98       72.95       72.91       72.86       72.81       72.76    
        72.70       72.63       72.56       72.48       72.40       72.31       72.23       72.14       72.06       71.98    
        71.90       71.82       71.75       71.67       71.60       71.53       71.46       71.39       71.32       71.26    
        71.19       71.12       71.06       70.99       70.93       70.86       70.80       70.73       70.67       70.61    
        70.55       70.48       70.42       70.36       70.30       70.24       70.18       70.12       70.06       70.00    
   8  -1000.0       73.08       73.06       73.02       72.99       72.95       72.91       72.87       72.82       72.76    
        72.70       72.63       72.56       72.48       72.39       72.30       72.22       72.13       72.05       71.97    
        71.89       71.81       71.74       71.66       71.59       71.52       71.45       71.38       71.32       71.25    
        71.18       71.12       71.05       70.99       70.92       70.86       70.79       70.73       70.67       70.61    
        70.54       70.48       70.42       70.36       70.30       70.24       70.18       70.12       70.06       70.00    
   9    73.09       73.08       73.05       73.03       73.00       72.96       72.92       72.87       72.82       72.76    
        72.70       72.63       72.55       72.47       72.39       72.29       72.21       72.12       72.04       71.95    
        71.88       71.80       71.73       71.65       71.58       71.51       71.45       71.38       71.31       71.24    
        71.18       71.11       71.05       70.98       70.92       70.85       70.79       70.73       70.66       70.60    
        70.54       70.48       70.42       70.36       70.30       70.24       70.18       70.12       70.06       70.00    
  10    73.09       73.07       73.05       73.03       73.00       72.96       72.92       72.87       72.82       72.76    
        72.70       72.62       72.55       72.46       72.38       72.28       72.19       72.10       72.02       71.94    
        71.86       71.79       71.71       71.64       71.57       71.50       71.44       71.37       71.30       71.24    
        71.17       71.11       71.04       70.98       70.91       70.85       70.78       70.72       70.66       70.60    
        70.54       70.48       70.42       70.36       70.30       70.24       70.18       70.12       70.06       70.00    
  11    73.08       73.07       73.05       73.03       73.00       72.97       72.92       72.88       72.82       72.76    
        72.69       72.62       72.54       72.45       72.36       72.27       72.18       72.09       72.00       71.92    
        71.84       71.77       71.70       71.63       71.56       71.49       71.43       71.36       71.30       71.23    
        71.17       71.10       71.04       70.97       70.91       70.84       70.78       70.72       70.66       70.59    
        70.53       70.47       70.41       70.35       70.29       70.24       70.18       70.12       70.06       70.00    
  12    73.08       73.07       73.06       73.03       73.00       72.97       72.93       72.88       72.82       72.76    
        72.69       72.61       72.53       72.44       72.35       72.25       72.16       72.07       71.98       71.90    
        71.82       71.75       71.68       71.61       71.55       71.48       71.42       71.35       71.29       71.22    
        71.16       71.09       71.03       70.97       70.90       70.84       70.77       70.71       70.65       70.59    
        70.53       70.47       70.41       70.35       70.29       70.23       70.17       70.12       70.06       70.00    
  13    73.08       73.07       73.06       73.04       73.01       72.97       72.93       72.88       72.82       72.76    
        72.68       72.61       72.52       72.43       72.33       72.23       72.13       72.04       71.95       71.87    
        71.80       71.73       71.66       71.60       71.53       71.47       71.41       71.35       71.28       71.22    
        71.15       71.09       71.02       70.96       70.90       70.83       70.77       70.71       70.64       70.58    
        70.52       70.46       70.41       70.35       70.29       70.23       70.17       70.12       70.06       70.00    
  14    73.08       73.08       73.06       73.04       73.01       72.97       72.93       72.88       72.82       72.75    
        72.68       72.60       72.51       72.42       72.31       72.21       72.10       72.01       71.92       71.84    
        71.77       71.70       71.64       71.58       71.52       71.46       71.40       71.34       71.27       71.21    
        71.15       71.08       71.02       70.95       70.89       70.82       70.76       70.70       70.64       70.58    
        70.52       70.46       70.40       70.34       70.29       70.23       70.17       70.11       70.06       70.00    
  15    73.09       73.08       73.06       73.04       73.01       72.97       72.93       72.88       72.82       72.75    
        72.68       72.59       72.50       72.40       72.29       72.18       72.07       71.96       71.87       71.79    
        71.73       71.67       71.62       71.56       71.51       71.45       71.39       71.33       71.27       71.21    
        71.14       71.08       71.01       70.95       70.88       70.82       70.75       70.69       70.63       70.57    
        70.51       70.45       70.40       70.34       70.28       70.23       70.17       70.11       70.06       70.00    
  16    73.09       73.08       73.07       73.05       73.02       72.98       72.93       72.88       72.82       72.75    
        72.67       72.59       72.49       72.39       72.27       72.15       72.03       71.91       71.81       71.74    
        71.69       71.64       71.59       71.55       71.49       71.44       71.38       71.32       71.26       71.20    
        71.14       71.07       71.01       70.94       70.88       70.81       70.75       70.68       70.62       70.56    
        70.51       70.45       70.39       70.34       70.28       70.23       70.17       70.11       70.06       70.00    
  17    73.09       73.09       73.07       73.05       73.02       72.98       72.94       72.88       72.82       72.75    
        72.67       72.58       72.49       72.38       72.25       72.12       71.98       71.84       71.72       71.67    
        71.64       71.61       71.57       71.53       71.48       71.43       71.38       71.32       71.26       71.20    
        71.13       71.07       71.00       70.94       70.87       70.80       70.74       70.68       70.62       70.56    
        70.50       70.45       70.39       70.33       70.28       70.22       70.17       70.11       70.06       70.00    
  18    73.10       73.09       73.08       73.05       73.02       72.99       72.94       72.89       72.82       72.75    
        72.67       72.58       72.48       72.37       72.24       72.10       71.93       71.75       71.56       71.58    
        71.59       71.58       71.56       71.52       71.48       71.43       71.38       71.32       71.26       71.20    
        71.13       71.07       71.00       70.93       70.86       70.80       70.73       70.67       70.61       70.55    
        70.50       70.44       70.39       70.33       70.28       70.22       70.17       70.11       70.06       70.00    
  19    73.10       73.10       73.08       73.06       73.03       72.99       72.95       72.89       72.83       72.76    
        72.68       72.59       72.49       72.37       72.24       72.09       71.90       71.66       71.21       71.48    
        71.56       71.57       71.56       71.52       71.48       71.43       71.38       71.32       71.26       71.20    
        71.13       71.07       71.00       70.93       70.86       70.79       70.72       70.66       70.60       70.54    
        70.49       70.44       70.38       70.33       70.28       70.22       70.17       70.11       70.06       70.00    
  20    73.11       73.10       73.09       73.07       73.04       73.00       72.95       72.90       72.84       72.77    
        72.69       72.60       72.49       72.38       72.25       72.11       71.94       71.76       71.57       71.59    
        71.60       71.59       71.57       71.53       71.49       71.44       71.38       71.33       71.26       71.20    
        71.14       71.07       71.00       70.93       70.86       70.79       70.72       70.65       70.59       70.54    
        70.49       70.44       70.38       70.33       70.28       70.22       70.17       70.11       70.06       70.00    
  21    73.12       73.11       73.10       73.07       73.04       73.01       72.96       72.91       72.84       72.77    
        72.70       72.61       72.51       72.40       72.28       72.14       72.00       71.86       71.74       71.69    
        71.66       71.63       71.59       71.55       71.50       71.45       71.39       71.33       71.27       71.21    
        71.14       71.07       71.00       70.93       70.86       70.79       70.72       70.65       70.59       70.54    
        70.49       70.44       70.38       70.33       70.28       70.22       70.17       70.11       70.06       70.00    
  22    73.12       73.12       73.10       73.08       73.05       73.01       72.97       72.92       72.86       72.79    
        72.71       72.62       72.53       72.42       72.31       72.18       72.06       71.94       71.84       71.77    
        71.72       71.67       71.62       71.57       71.52       71.46       71.40       71.34       71.28       71.22    
        71.15       71.08       71.01       70.94       70.87       70.80       70.72       70.66       70.60       70.55    
        70.49       70.44       70.39       70.33       70.28       70.22       70.17       70.11       70.06       70.00    
  23    73.13       73.13       73.11       73.09       73.06       73.02       72.98       72.93       72.87       72.80    
        72.72       72.64       72.55       72.45       72.34       72.22       72.11       72.01       71.91       71.83    
        71.77       71.71       71.65       71.60       71.54       71.48       71.42       71.36       71.29       71.23    
        71.16       71.09       71.02       70.95       70.88       70.81       70.74       70.67       70.61       70.56    
        70.50       70.45       70.39       70.34       70.28       70.23       70.17       70.11       70.06       70.00    
  24    73.14       73.13       73.12       73.10       73.07       73.03       72.99       72.94       72.88       72.81    
        72.74       72.66       72.57       72.47       72.37       72.26       72.16       72.06       71.97       71.89    
        71.81       71.75       71.68       71.62       71.56       71.50       71.43       71.37       71.30       71.24    
        71.17       71.10       71.03       70.96       70.89       70.82       70.75       70.69       70.63       70.57    
        70.51       70.45       70.40       70.34       70.29       70.23       70.17       70.12       70.06       70.00    
  25    73.15       73.14       73.13       73.11       73.08       73.04       73.00       72.95       72.89       72.83    
        72.76       72.68       72.59       72.50       72.40       72.30       72.20       72.10       72.01       71.93    
        71.85       71.78       71.71       71.65       71.58       71.52       71.45       71.38       71.32       71.25    
        71.18       71.11       71.04       70.97       70.90       70.83       70.77       70.70       70.64       70.58    
        70.52       70.46       70.41       70.35       70.29       70.23       70.18       70.12       70.06       70.00    
  26    73.16       73.15       73.14       73.12       73.09       73.05       73.01       72.96       72.91       72.84    
        72.77       72.70       72.61       72.52       72.43       72.33       72.23       72.14       72.05       71.97    
        71.89       71.81       71.74       71.67       71.60       71.54       71.47       71.40       71.33       71.26    
        71.20       71.13       71.06       70.99       70.92       70.85       70.78       70.72       70.65       70.59    
        70.53       70.47       70.41       70.35       70.30       70.24       70.18       70.12       70.06       70.00    
  27    73.17       73.16       73.15       73.13       73.10       73.06       73.02       72.98       72.92       72.86    
        72.79       72.72       72.63       72.55       72.45       72.36       72.26       72.17       72.08       72.00    
        71.92       71.84       71.77       71.70       71.63       71.56       71.49       71.42       71.35       71.28    
        71.21       71.14       71.07       71.00       70.93       70.86       70.80       70.73       70.67       70.60    
        70.54       70.48       70.42       70.36       70.30       70.24       70.18       70.12       70.06       70.00    
  28    73.18       73.17       73.16       73.14       73.11       73.08       73.03       72.99       72.93       72.87    
        72.81       72.73       72.65       72.57       72.48       72.38       72.29       72.20       72.11       72.03    
        71.95       71.87       71.79       71.72       71.65       71.57       71.50       71.43       71.36       71.29    
        71.22       71.15       71.08       71.01       70.94       70.88       70.81       70.74       70.68       70.61    
        70.55       70.49       70.43       70.37       70.30       70.24       70.18       70.12       70.06       70.00    
  29    73.19       73.18       73.17       73.15       73.12       73.09       73.05       73.00       72.95       72.89    
        72.82       72.75       72.67       72.59       72.50       72.41       72.31       72.22       72.14       72.05    
        71.97       71.89       71.81       71.74       71.67       71.59       71.52       71.45       71.38       71.31    
        71.24       71.16       71.09       71.02       70.96       70.89       70.82       70.75       70.69       70.62    
        70.56       70.50       70.43       70.37       70.31       70.25       70.19       70.12       70.06       70.00    
  30    73.20       73.19       73.18       73.16       73.13       73.10       73.06       73.01       72.96       72.90    
        72.84       72.77       72.69       72.61       72.52       72.43       72.34       72.25       72.16       72.08    
        71.99       71.91       71.84       71.76       71.68       71.61       71.54       71.46       71.39       71.32    
        71.25       71.18       71.11       71.04       70.97       70.90       70.83       70.76       70.70       70.63    
        70.57       70.50       70.44       70.38       70.31       70.25       70.19       70.13       70.06       70.00    
  31    73.20       73.20       73.18       73.17       73.14       73.11       73.07       73.02       72.97       72.91    
        72.85       72.78       72.71       72.62       72.54       72.45       72.36       72.27       72.18       72.10    
        72.01       71.93       71.85       71.78       71.70       71.63       71.55       71.48       71.40       71.33    
        71.26       71.19       71.12       71.05       70.98       70.91       70.84       70.77       70.71       70.64    
        70.57       70.51       70.45       70.38       70.32       70.25       70.19       70.13       70.06       70.00    
  32    73.21       73.21       73.19       73.17       73.15       73.12       73.08       73.03       72.98       72.93    
        72.86       72.80       72.72       72.64       72.55       72.46       72.37       72.29       72.20       72.11    
        72.03       71.95       71.87       71.79       71.72       71.64       71.57       71.49       71.42       71.34    
        71.27       71.20       71.13       71.06       70.99       70.92       70.85       70.78       70.72       70.65    
        70.58       70.52       70.45       70.39       70.32       70.26       70.19       70.13       70.06       70.00    
  33    73.22       73.21       73.20       73.18       73.16       73.13       73.09       73.04       72.99       72.94    
        72.88       72.81       72.73       72.65       72.57       72.48       72.39       72.30       72.22       72.13    
        72.05       71.97       71.89       71.81       71.73       71.65       71.58       71.50       71.43       71.36    
        71.28       71.21       71.14       71.07       71.00       70.93       70.86       70.79       70.72       70.66    
        70.59       70.52       70.46       70.39       70.33       70.26       70.19       70.13       70.06       70.00    
  34    73.23       73.22       73.21       73.19       73.17       73.13       73.10       73.05       73.00       72.95    
        72.89       72.82       72.75       72.67       72.58       72.49       72.40       72.32       72.23       72.15    
        72.06       71.98       71.90       71.82       71.74       71.67       71.59       71.52       71.44       71.37    
        71.29       71.22       71.15       71.08       71.01       70.94       70.87       70.80       70.73       70.66    
        70.60       70.53       70.46       70.39       70.33       70.26       70.20       70.13       70.07       70.00    
  35    73.23       73.23       73.22       73.20       73.17       73.14       73.10       73.06       73.01       72.96    
        72.90       72.83       72.76       72.68       72.60       72.51       72.42       72.33       72.24       72.16    
        72.08       72.00       71.92       71.84       71.76       71.68       71.60       71.53       71.45       71.38    
        71.30       71.23       71.16       71.09       71.02       70.95       70.88       70.81       70.74       70.67    
        70.60       70.53       70.47       70.40       70.33       70.27       70.20       70.13       70.07       70.00    
  36    73.24       73.24       73.22       73.20       73.18       73.15       73.11       73.07       73.02       72.97    
        72.91       72.84       72.77       72.69       72.61       72.52       72.43       72.34       72.26       72.17    
        72.09       72.01       71.93       71.85       71.77       71.69       71.61       71.54       71.46       71.39    
        71.31       71.24       71.17       71.10       71.02       70.95       70.88       70.81       70.74       70.67    
        70.61       70.54       70.47       70.40       70.34       70.27       70.20       70.13       70.07       70.00    
  37    73.25       73.24       73.23       73.21       73.19       73.15       73.12       73.08       73.03       72.97    
        72.91       72.85       72.78       72.70       72.62       72.53       72.44       72.35       72.27       72.18    
        72.10       72.02       71.94       71.86       71.78       71.70       71.62       71.55       71.47       71.40    
        71.32       71.25       71.18       71.10       71.03       70.96       70.89       70.82       70.75       70.68    
        70.61       70.54       70.47       70.41       70.34       70.27       70.20       70.13       70.07       70.00    
  38    73.25       73.25       73.23       73.21       73.19       73.16       73.12       73.08       73.03       72.98    
        72.92       72.85       72.78       72.71       72.62       72.54       72.45       72.36       72.28       72.19    
        72.11       72.03       71.95       71.87       71.79       71.71       71.63       71.56       71.48       71.41    
        71.33       71.26       71.18       71.11       71.04       70.97       70.90       70.83       70.75       70.69    
        70.62       70.55       70.48       70.41       70.34       70.27       70.20       70.14       70.07       70.00    
  39    73.26       73.25       73.24       73.22       73.19       73.16       73.13       73.08       73.04       72.98    
        72.92       72.86       72.79       72.71       72.63       72.54       72.46       72.37       72.29       72.20    
        72.12       72.04       71.96       71.88       71.80       71.72       71.64       71.57       71.49       71.41    
        71.34       71.26       71.19       71.12       71.05       70.97       70.90       70.83       70.76       70.69    
        70.62       70.55       70.48       70.41       70.34       70.27       70.21       70.14       70.07       70.00    
  40    73.26       73.26       73.24       73.22       73.20       73.17       73.13       73.09       73.04       72.99    
        72.93       72.86       72.79       72.72       72.64       72.55       72.46       72.38       72.29       72.21    
        72.13       72.05       71.96       71.88       71.81       71.73       71.65       71.57       71.50       71.42    
        71.35       71.27       71.20       71.12       71.05       70.98       70.91       70.84       70.76       70.69    
        70.62       70.55       70.48       70.41       70.34       70.28       70.21       70.14       70.07       70.00    
  41    73.27       73.26       73.24       73.22       73.20       73.17       73.13       73.09       73.04       72.99    
        72.93       72.87       72.80       72.72       72.64       72.56       72.47       72.38       72.30       72.22    
        72.13       72.05       71.97       71.89       71.81       71.73       71.66       71.58       71.50       71.43    
        71.35       71.28       71.20       71.13       71.06       70.98       70.91       70.84       70.77       70.70    
        70.63       70.56       70.49       70.42       70.35       70.28       70.21       70.14       70.07       70.00    
  42    73.28       73.27       73.25       73.23       73.20       73.17       73.13       73.09       73.04       72.99    
        72.93       72.87       72.80       72.73       72.65       72.56       72.47       72.39       72.31       72.22    
        72.14       72.06       71.98       71.90       71.82       71.74       71.66       71.58       71.51       71.43    
        71.36       71.28       71.21       71.13       71.06       70.99       70.92       70.84       70.77       70.70    
        70.63       70.56       70.49       70.42       70.35       70.28       70.21       70.14       70.07       70.00    
  43  -1000.0       73.28       73.26       73.22       73.20       73.17       73.13       73.09       73.04       72.99    
        72.93       72.87       72.80       72.73       72.65       72.56       72.48       72.39       72.31       72.23    
        72.15       72.06       71.98       71.90       71.82       71.75       71.67       71.59       71.51       71.44    
        71.36       71.29       71.21       71.14       71.06       70.99       70.92       70.85       70.78       70.70    
        70.63       70.56       70.49       70.42       70.35       70.28       70.21       70.14       70.07       70.00    
  44  -1000.0     -1000.0       73.26       73.23       73.19       73.16       73.13       73.09       73.04       72.99    
        72.93       72.87       72.80       72.73       72.65       72.57       72.48       72.40       72.31       72.23    
        72.15       72.07       71.99       71.91       71.83       71.75       71.67       71.59       71.52       71.44    
        71.37       71.29       71.22       71.14       71.07       70.99       70.92       70.85       70.78       70.71    
        70.63       70.56       70.49       70.42       70.35       70.28       70.21       70.14       70.07       70.00    
  45  -1000.0     -1000.0     -1000.0       73.24       73.20       73.16       73.12       73.08       73.04       72.99    
        72.93       72.87       72.80       72.73       72.65       72.57       72.48       72.40       72.32       72.23    
        72.15       72.07       71.99       71.91       71.83       71.75       71.68       71.60       71.52       71.44    
        71.37       71.29       71.22       71.14       71.07       71.00       70.92       70.85       70.78       70.71    
        70.64       70.57       70.49       70.42       70.35       70.28       70.21       70.14       70.07       70.00    
  46  -1000.0     -1000.0     -1000.0     -1000.0       73.20       73.16       73.11       73.07       73.03       72.98    
        72.93       72.87       72.80       72.73       72.65       72.57       72.49       72.40       72.32       72.24    
        72.16       72.07       71.99       71.91       71.84       71.76       71.68       71.60       71.52       71.45    
        71.37       71.30       71.22       71.15       71.07       71.00       70.93       70.85       70.78       70.71    
        70.64       70.57       70.50       70.42       70.35       70.28       70.21       70.14       70.07       70.00    
  47  -1000.0     -1000.0     -1000.0     -1000.0     -1000.0       73.16       73.12       73.06       73.02       72.97    
        72.92       72.86       72.80       72.73       72.65       72.57       72.49       72.40       72.32       72.24    
        72.16       72.08       72.00       71.92       71.84       71.76       71.68       71.60       71.53       71.45    
        71.37       71.30       71.22       71.15       71.08       71.00       70.93       70.86       70.78       70.71    
        70.64       70.57       70.50       70.43       70.35       70.28       70.21       70.14       70.07       70.00    
  48  -1000.0     -1000.0     -1000.0     -1000.0     -1000.0     -1000.0       73.11       73.07       73.01       72.97    
        72.92       72.86       72.80       72.73       72.65       72.57       72.49       72.40       72.32       72.24    
        72.16       72.08       72.00       71.92       71.84       71.76       71.68       71.61       71.53       71.45    
        71.38       71.30       71.23       71.15       71.08       71.00       70.93       70.86       70.78       70.71    
        70.64       70.57       70.50       70.43       70.35       70.28       70.21       70.14       70.07       70.00    
  49  -1000.0     -1000.0     -1000.0     -1000.0     -1000.0     -1000.0     -1000.0       73.07       73.02       72.95    
        72.91       72.85       72.79       72.73       72.65       72.57       72.49       72.41       72.32       72.24    
        72.16       72.08       72.00       71.92       71.84       71.76       71.68       71.61       71.53       71.45    
        71.38       71.30       71.23       71.15       71.08       71.00       70.93       70.86       70.79       70.71    
        70.64       70.57       70.50       70.43       70.36       70.28       70.21       70.14       70.07       70.00    
  50  -1000.0     -1000.0     -1000.0     -1000.0     -1000.0     -1000.0     -1000.0     -1000.0       73.02       72.96    
        72.90       72.85       72.79       72.73       72.65       72.57       72.49       72.41       72.32       72.24    
        72.16       72.08       72.00       71.92       71.84       71.76       71.68       71.61       71.53       71.45    
        71.38       71.30       71.23       71.15       71.08       71.00       70.93       70.86       70.79       70.71    
        70.64       70.57       70.50       70.43       70.36       70.28       70.21       70.14       70.07       70.00    
1
              HEAD IN LAYER   3 AT END OF TIME STEP   1 IN STRESS PERIOD    1
  ---------------------------------------------------------------------------

            1           2           3           4           5           6           7           8           9          10
           11          12          13          14          15          16          17          18          19          20
           21          22          23          24          25          26          27          28          29          30
           31          32          33          34          35          36          37          38          39          40
           41          42          43          44          45          46          47          48          49          50
 ........................................................................................................................
   1  -1000.0     -1000.0     -1000.0     -1000.0     -1000.0     -1000.0     -1000.0     -1000.0     -1000.0     -1000.0    
        72.66       72.61       72.55       72.49       72.41       72.33       72.25       72.16       72.08       72.00    
        71.93       71.85       71.77       71.69       71.62       71.55       71.47       71.40       71.33       71.26    
        71.19       71.12       71.06       70.99       70.93       70.86       70.80       70.73       70.67       70.61    
        70.54       70.48       70.42       70.36       70.30       70.24       70.18       70.12       70.06       70.00    
   2  -1000.0     -1000.0     -1000.0     -1000.0     -1000.0     -1000.0     -1000.0     -1000.0     -1000.0       72.72    
        72.67       72.62       72.56       72.49       72.41       72.33       72.25       72.16       72.08       72.00    
        71.92       71.85       71.77       71.69       71.62       71.54       71.47       71.40       71.33       71.26    
        71.19       71.12       71.06       70.99       70.92       70.86       70.80       70.73       70.67       70.61    
        70.54       70.48       70.42       70.36       70.30       70.24       70.18       70.12       70.06       70.00    
   3  -1000.0     -1000.0     -1000.0     -1000.0     -1000.0     -1000.0     -1000.0     -1000.0       72.78       72.73    
        72.68       72.62       72.56       72.49       72.41       72.33       72.24       72.16       72.08       72.00    
        71.92       71.84       71.77       71.69       71.62       71.54       71.47       71.40       71.33       71.26    
        71.19       71.12       71.05       70.99       70.92       70.86       70.79       70.73       70.67       70.60    
        70.54       70.48       70.42       70.36       70.30       70.24       70.18       70.12       70.06       70.00    
   4  -1000.0     -1000.0     -1000.0     -1000.0     -1000.0     -1000.0     -1000.0       72.84       72.79       72.74    
        72.69       72.63       72.56       72.49       72.41       72.32       72.24       72.16       72.08       72.00    
        71.92       71.84       71.76       71.69       71.61       71.54       71.47       71.40       71.33       71.26    
        71.19       71.12       71.05       70.99       70.92       70.86       70.79       70.73       70.66       70.60    
        70.54       70.48       70.42       70.36       70.30       70.24       70.18       70.12       70.06       70.00    
   5  -1000.0     -1000.0     -1000.0     -1000.0     -1000.0     -1000.0       72.89       72.85       72.80       72.75    
        72.69       72.63       72.56       72.49       72.41       72.32       72.24       72.15       72.07       71.99    
        71.91       71.83       71.76       71.68       71.61       71.53       71.46       71.39       71.32       71.25    
        71.18       71.12       71.05       70.98       70.92       70.85       70.79       70.72       70.66       70.60    
[...]
        70.40       70.37       70.33       70.29       70.24       70.20       70.15       70.10       70.05       70.00    
  24    73.14       73.13       73.12       73.10       73.07       73.03       72.99       72.94       72.88       72.81    
        72.74       72.66       72.57       72.47       72.37       72.26       72.16       72.06       71.97       71.89    
        71.81       71.74       71.67       71.61       71.54       71.48       71.41       71.34       71.27       71.20    
        71.13       71.05       70.97       70.89       70.80       70.72       70.64       70.57       70.51       70.47    
        70.43       70.39       70.34       70.30       70.25       70.20       70.15       70.10       70.05       70.00    
  25    73.15       73.14       73.13       73.11       73.08       73.04       73.00       72.95       72.89       72.83    
        72.76       72.68       72.59       72.50       72.40       72.30       72.20       72.10       72.01       71.93    
        71.85       71.78       71.70       71.64       71.57       71.50       71.43       71.36       71.29       71.21    
        71.14       71.06       70.99       70.91       70.83       70.75       70.68       70.61       70.55       70.50    
        70.45       70.40       70.35       70.31       70.26       70.21       70.16       70.10       70.05       70.00    
  26    73.16       73.15       73.14       73.12       73.09       73.05       73.01       72.96       72.91       72.84    
        72.77       72.70       72.61       72.52       72.43       72.33       72.23       72.14       72.05       71.97    
        71.89       71.81       71.73       71.66       71.59       71.52       71.45       71.38       71.30       71.23    
        71.16       71.08       71.01       70.93       70.85       70.78       70.71       70.64       70.58       70.53    
        70.47       70.42       70.37       70.32       70.26       70.21       70.16       70.11       70.05       70.00    
  27    73.17       73.16       73.15       73.13       73.10       73.06       73.02       72.98       72.92       72.86    
        72.79       72.72       72.63       72.55       72.45       72.36       72.26       72.17       72.08       72.00    
        71.92       71.84       71.76       71.69       71.61       71.54       71.47       71.39       71.32       71.25    
        71.17       71.10       71.02       70.95       70.88       70.81       70.74       70.67       70.61       70.55    
        70.49       70.44       70.38       70.33       70.27       70.22       70.16       70.11       70.05       70.00    
  28    73.18       73.17       73.16       73.14       73.11       73.08       73.03       72.99       72.93       72.87    
        72.81       72.73       72.65       72.57       72.48       72.38       72.29       72.20       72.11       72.03    
        71.94       71.86       71.78       71.71       71.63       71.56       71.48       71.41       71.34       71.26    
        71.19       71.12       71.04       70.97       70.90       70.83       70.76       70.69       70.63       70.57    
        70.51       70.45       70.39       70.34       70.28       70.22       70.17       70.11       70.06       70.00    
  29    73.19       73.18       73.17       73.15       73.12       73.09       73.05       73.00       72.95       72.89    
        72.82       72.75       72.67       72.59       72.50       72.41       72.31       72.22       72.14       72.05    
        71.97       71.89       71.81       71.73       71.65       71.58       71.50       71.43       71.35       71.28    
        71.21       71.13       71.06       70.99       70.92       70.85       70.78       70.71       70.65       70.58    
        70.52       70.46       70.40       70.35       70.29       70.23       70.17       70.11       70.06       70.00    
  30    73.20       73.19       73.18       73.16       73.13       73.10       73.06       73.01       72.96       72.90    
        72.84       72.77       72.69       72.61       72.52       72.43       72.34       72.25       72.16       72.08    
        71.99       71.91       71.83       71.75       71.67       71.60       71.52       71.44       71.37       71.30    
        71.22       71.15       71.08       71.00       70.93       70.86       70.80       70.73       70.66       70.60    
        70.54       70.47       70.41       70.35       70.29       70.24       70.18       70.12       70.06       70.00    
  31    73.20       73.20       73.18       73.17       73.14       73.11       73.07       73.02       72.97       72.91    
        72.85       72.78       72.71       72.62       72.54       72.45       72.36       72.27       72.18       72.10    
        72.01       71.93       71.85       71.77       71.69       71.61       71.54       71.46       71.39       71.31    
        71.24       71.16       71.09       71.02       70.95       70.88       70.81       70.74       70.68       70.61    
        70.55       70.49       70.42       70.36       70.30       70.24       70.18       70.12       70.06       70.00    
  32    73.21       73.21       73.19       73.17       73.15       73.12       73.08       73.03       72.98       72.93    
        72.86       72.80       72.72       72.64       72.55       72.46       72.37       72.29       72.20       72.11    
        72.03       71.95       71.87       71.79       71.71       71.63       71.55       71.48       71.40       71.33    
        71.25       71.18       71.11       71.03       70.96       70.89       70.82       70.76       70.69       70.62    
        70.56       70.49       70.43       70.37       70.31       70.25       70.18       70.12       70.06       70.00    
  33    73.22       73.21       73.20       73.18       73.16       73.13       73.09       73.04       72.99       72.94    
        72.88       72.81       72.73       72.65       72.57       72.48       72.39       72.30       72.22       72.13    
        72.05       71.96       71.88       71.80       71.72       71.64       71.57       71.49       71.41       71.34    
        71.27       71.19       71.12       71.05       70.98       70.91       70.84       70.77       70.70       70.63    
        70.57       70.50       70.44       70.38       70.31       70.25       70.19       70.12       70.06       70.00    
  34    73.23       73.22       73.21       73.19       73.17       73.13       73.10       73.05       73.00       72.95    
        72.89       72.82       72.75       72.67       72.58       72.49       72.40       72.32       72.23       72.15    
        72.06       71.98       71.90       71.82       71.74       71.66       71.58       71.50       71.43       71.35    
        71.28       71.20       71.13       71.06       70.99       70.92       70.85       70.78       70.71       70.64    
        70.58       70.51       70.45       70.38       70.32       70.25       70.19       70.13       70.06       70.00    
  35    73.23       73.23       73.22       73.20       73.17       73.14       73.10       73.06       73.01       72.96    
        72.90       72.83       72.76       72.68       72.60       72.51       72.42       72.33       72.24       72.16    
        72.08       71.99       71.91       71.83       71.75       71.67       71.59       71.52       71.44       71.36    
        71.29       71.22       71.14       71.07       71.00       70.93       70.86       70.79       70.72       70.65    
        70.59       70.52       70.45       70.39       70.32       70.26       70.19       70.13       70.06       70.00    
  36    73.24       73.24       73.22       73.20       73.18       73.15       73.11       73.07       73.02       72.97    
        72.91       72.84       72.77       72.69       72.61       72.52       72.43       72.34       72.26       72.17    
        72.09       72.00       71.92       71.84       71.76       71.68       71.60       71.53       71.45       71.38    
        71.30       71.23       71.15       71.08       71.01       70.94       70.87       70.80       70.73       70.66    
        70.59       70.53       70.46       70.39       70.33       70.26       70.20       70.13       70.07       70.00    
  37    73.25       73.24       73.23       73.21       73.19       73.15       73.12       73.08       73.03       72.97    
        72.91       72.85       72.78       72.70       72.62       72.53       72.44       72.35       72.27       72.18    
        72.10       72.02       71.93       71.85       71.77       71.69       71.62       71.54       71.46       71.39    
        71.31       71.24       71.16       71.09       71.02       70.95       70.88       70.81       70.74       70.67    
        70.60       70.53       70.46       70.40       70.33       70.26       70.20       70.13       70.07       70.00    
  38    73.25       73.25       73.23       73.21       73.19       73.16       73.12       73.08       73.03       72.98    
        72.92       72.85       72.78       72.71       72.62       72.54       72.45       72.36       72.28       72.19    
        72.11       72.03       71.94       71.86       71.78       71.70       71.63       71.55       71.47       71.40    
        71.32       71.25       71.17       71.10       71.03       70.95       70.88       70.81       70.74       70.67    
        70.60       70.54       70.47       70.40       70.33       70.27       70.20       70.13       70.07       70.00    
  39    73.26       73.25       73.24       73.22       73.19       73.16       73.13       73.08       73.04       72.98    
        72.92       72.86       72.79       72.71       72.63       72.54       72.46       72.37       72.29       72.20    
        72.12       72.04       71.95       71.87       71.79       71.71       71.63       71.56       71.48       71.40    
        71.33       71.25       71.18       71.11       71.03       70.96       70.89       70.82       70.75       70.68    
        70.61       70.54       70.47       70.40       70.34       70.27       70.20       70.13       70.07       70.00    
  40    73.26       73.26       73.24       73.22       73.20       73.17       73.13       73.09       73.04       72.99    
        72.93       72.86       72.79       72.72       72.64       72.55       72.46       72.38       72.29       72.21    
        72.13       72.04       71.96       71.88       71.80       71.72       71.64       71.56       71.49       71.41    
        71.34       71.26       71.19       71.11       71.04       70.97       70.90       70.82       70.75       70.68    
        70.61       70.54       70.48       70.41       70.34       70.27       70.20       70.14       70.07       70.00    
  41  -1000.0       73.26       73.24       73.22       73.20       73.17       73.13       73.09       73.04       72.99    
        72.93       72.87       72.80       72.72       72.64       72.56       72.47       72.38       72.30       72.22    
        72.13       72.05       71.97       71.89       71.81       71.73       71.65       71.57       71.49       71.42    
        71.34       71.27       71.19       71.12       71.05       70.97       70.90       70.83       70.76       70.69    
        70.62       70.55       70.48       70.41       70.34       70.27       70.20       70.14       70.07       70.00    
  42  -1000.0     -1000.0       73.25       73.23       73.20       73.17       73.13       73.09       73.04       72.99    
        72.93       72.87       72.80       72.73       72.65       72.56       72.47       72.39       72.31       72.22    
        72.14       72.06       71.97       71.89       71.81       71.73       71.66       71.58       71.50       71.42    
        71.35       71.27       71.20       71.12       71.05       70.98       70.91       70.83       70.76       70.69    
        70.62       70.55       70.48       70.41       70.34       70.27       70.21       70.14       70.07       70.00    
  43  -1000.0     -1000.0     -1000.0       73.22       73.20       73.17       73.13       73.09       73.04       72.99    
        72.93       72.87       72.80       72.73       72.65       72.56       72.48       72.39       72.31       72.23    
        72.14       72.06       71.98       71.90       71.82       71.74       71.66       71.58       71.51       71.43    
        71.35       71.28       71.20       71.13       71.06       70.98       70.91       70.84       70.77       70.70    
        70.62       70.55       70.48       70.41       70.35       70.28       70.21       70.14       70.07       70.00    
  44  -1000.0     -1000.0     -1000.0     -1000.0       73.19       73.16       73.13       73.09       73.04       72.99    
        72.93       72.87       72.80       72.73       72.65       72.57       72.48       72.40       72.31       72.23    
        72.15       72.07       71.98       71.90       71.82       71.74       71.67       71.59       71.51       71.43    
        71.36       71.28       71.21       71.13       71.06       70.99       70.91       70.84       70.77       70.70    
        70.63       70.56       70.49       70.42       70.35       70.28       70.21       70.14       70.07       70.00    
  45  -1000.0     -1000.0     -1000.0     -1000.0     -1000.0       73.16       73.12       73.08       73.04       72.99    
        72.93       72.87       72.80       72.73       72.65       72.57       72.48       72.40       72.32       72.23    
        72.15       72.07       71.99       71.91       71.83       71.75       71.67       71.59       71.51       71.44    
        71.36       71.29       71.21       71.14       71.06       70.99       70.92       70.84       70.77       70.70    
        70.63       70.56       70.49       70.42       70.35       70.28       70.21       70.14       70.07       70.00    
  46  -1000.0     -1000.0     -1000.0     -1000.0     -1000.0     -1000.0       73.11       73.07       73.03       72.98    
        72.93       72.87       72.80       72.73       72.65       72.57       72.49       72.40       72.32       72.24    
        72.16       72.07       71.99       71.91       71.83       71.75       71.67       71.60       71.52       71.44    
        71.37       71.29       71.21       71.14       71.07       70.99       70.92       70.85       70.77       70.70    
        70.63       70.56       70.49       70.42       70.35       70.28       70.21       70.14       70.07       70.00    
  47  -1000.0     -1000.0     -1000.0     -1000.0     -1000.0     -1000.0     -1000.0       73.06       73.02       72.97    
        72.92       72.86       72.80       72.73       72.65       72.57       72.49       72.40       72.32       72.24    
        72.16       72.08       71.99       71.91       71.83       71.75       71.68       71.60       71.52       71.44    
        71.37       71.29       71.22       71.14       71.07       70.99       70.92       70.85       70.78       70.70    
        70.63       70.56       70.49       70.42       70.35       70.28       70.21       70.14       70.07       70.00    
  48  -1000.0     -1000.0     -1000.0     -1000.0     -1000.0     -1000.0     -1000.0     -1000.0       73.01       72.97    
        72.92       72.86       72.80       72.73       72.65       72.57       72.49       72.40       72.32       72.24    
        72.16       72.08       72.00       71.92       71.84       71.76       71.68       71.60       71.52       71.45    
        71.37       71.29       71.22       71.14       71.07       71.00       70.92       70.85       70.78       70.71    
        70.63       70.56       70.49       70.42       70.35       70.28       70.21       70.14       70.07       70.00    
  49  -1000.0     -1000.0     -1000.0     -1000.0     -1000.0     -1000.0     -1000.0     -1000.0     -1000.0       72.95    
        72.91       72.85       72.79       72.73       72.65       72.57       72.49       72.41       72.32       72.24    
        72.16       72.08       72.00       71.92       71.84       71.76       71.68       71.60       71.52       71.45    
        71.37       71.29       71.22       71.15       71.07       71.00       70.92       70.85       70.78       70.71    
        70.64       70.56       70.49       70.42       70.35       70.28       70.21       70.14       70.07       70.00    
  50  -1000.0     -1000.0     -1000.0     -1000.0     -1000.0     -1000.0     -1000.0     -1000.0     -1000.0     -1000.0    
        72.90       72.85       72.79       72.73       72.65       72.57       72.49       72.41       72.32       72.24    
        72.16       72.08       72.00       71.92       71.84       71.76       71.68       71.60       71.52       71.45    
        71.37       71.30       71.22       71.15       71.07       71.00       70.92       70.85       70.78       70.71    
        70.64       70.56       70.49       70.42       70.35       70.28       70.21       70.14       70.07       70.00    

 HEAD WILL BE SAVED ON UNIT   51 AT END OF TIME STEP    1, STRESS PERIOD    1

 DRAWDOWN WILL BE SAVED ON UNIT   52 AT END OF TIME STEP    1, STRESS PERIOD    1
1
  VOLUMETRIC BUDGET FOR ENTIRE MODEL AT END OF TIME STEP    1, STRESS PERIOD   1
  ------------------------------------------------------------------------------

     CUMULATIVE VOLUMES      L**3       RATES FOR THIS TIME STEP      L**3/T
     ------------------                 ------------------------

           IN:                                      IN:
           ---                                      ---
             STORAGE =           0.0000               STORAGE =           0.0000
       CONSTANT HEAD =           0.0000         CONSTANT HEAD =           0.0000
               WELLS =           0.0000                 WELLS =           0.0000
                  ET =           0.0000                    ET =           0.0000
            RECHARGE =     3185999.7500              RECHARGE =       17699.9980
      STREAM LEAKAGE =       21160.3750        STREAM LEAKAGE =         117.5576

            TOTAL IN =     3207160.0000              TOTAL IN =       17817.5566

          OUT:                                     OUT:
          ----                                     ----
             STORAGE =           0.0000               STORAGE =           0.0000
       CONSTANT HEAD =     1955624.2500         CONSTANT HEAD =       10864.5791
               WELLS =     1251536.0000                 WELLS =        6952.9775
                  ET =           0.0000                    ET =           0.0000
            RECHARGE =           0.0000              RECHARGE =           0.0000
      STREAM LEAKAGE =           0.0000        STREAM LEAKAGE =           0.0000

           TOTAL OUT =     3207160.2500             TOTAL OUT =       17817.5566

            IN - OUT =          -0.2500              IN - OUT =           0.0000

 PERCENT DISCREPANCY =          -0.00     PERCENT DISCREPANCY =           0.00






         TIME SUMMARY AT END OF TIME STEP    1 IN STRESS PERIOD    1
                    SECONDS     MINUTES      HOURS       DAYS        YEARS
                    -----------------------------------------------------------
   TIME STEP LENGTH 1.55520E+07 2.59200E+05  4320.0      180.00     0.49281    
 STRESS PERIOD TIME 1.55520E+07 2.59200E+05  4320.0      180.00     0.49281    
         TOTAL TIME 1.55520E+07 2.59200E+05  4320.0      180.00     0.49281    
1

 Run end date and time (yyyy/mm/dd hh:mm:ss): 2023/07/16 17:22:12
 Elapsed run time:  0.166 Seconds

