                                  MODFLOW-2005     
      U.S. GEOLOGICAL SURVEY MODULAR FINITE-DIFFERENCE GROUND-WATER FLOW MODEL
                            VERSION 1.12.00 2/3/2017

 LIST FILE: town_truth.list
                         UNIT    2

 OPENING town_truth.dis
 FILE TYPE:DIS   UNIT   11   STATUS:OLD    
 FORMAT:FORMATTED              ACCESS:SEQUENTIAL          

 OPENING town_truth.bas
 FILE TYPE:BAS6   UNIT   13   STATUS:OLD    
 FORMAT:FORMATTED              ACCESS:SEQUENTIAL          

 OPENING town_truth.lpf
 FILE TYPE:LPF   UNIT   15   STATUS:OLD    
 FORMAT:FORMATTED              ACCESS:SEQUENTIAL          

 OPENING town_truth.oc
 FILE TYPE:OC   UNIT   14   STATUS:OLD    
 FORMAT:FORMATTED              ACCESS:SEQUENTIAL          

 OPENING town_truth.pcg
 FILE TYPE:PCG   UNIT   27   STATUS:OLD    
 FORMAT:FORMATTED              ACCESS:SEQUENTIAL          

 OPENING town_truth.rch
 FILE TYPE:RCH   UNIT   19   STATUS:OLD    
 FORMAT:FORMATTED              ACCESS:SEQUENTIAL          

 OPENING town_truth.evt
 FILE TYPE:EVT   UNIT   22   STATUS:OLD    
 FORMAT:FORMATTED              ACCESS:SEQUENTIAL          

 OPENING town_truth.wel
 FILE TYPE:WEL   UNIT   20   STATUS:OLD    
 FORMAT:FORMATTED              ACCESS:SEQUENTIAL          

 OPENING town_truth.str
 FILE TYPE:STR   UNIT  118   STATUS:OLD    
 FORMAT:FORMATTED              ACCESS:SEQUENTIAL          

 OPENING town_truth.cbc
 FILE TYPE:DATA(BINARY)   UNIT   53   STATUS:REPLACE
 FORMAT:BINARY                 ACCESS:SEQUENTIAL          

 OPENING town_truth.hds
 FILE TYPE:DATA(BINARY)   UNIT   51   STATUS:REPLACE
 FORMAT:BINARY                 ACCESS:SEQUENTIAL          

 OPENING town_truth.ddn
 FILE TYPE:DATA(BINARY)   UNIT   52   STATUS:REPLACE
 FORMAT:BINARY                 ACCESS:SEQUENTIAL          

 BAS -- BASIC PACKAGE, VERSION 7, 5/2/2005 INPUT READ FROM UNIT   13
 
 MODFLOW was compiled using mixed precision
 Precision of REAL variables:           6
 Precision of DOUBLE PRECISION variables:          15

 DISCRETIZATION INPUT DATA READ FROM UNIT   11
 # DIS package for  MODFLOW-2005, generated by Flopy.
    3 LAYERS        50 ROWS        50 COLUMNS
    1 STRESS PERIOD(S) IN SIMULATION
 MODEL TIME UNIT IS DAYS
 MODEL LENGTH UNIT IS METERS
  Confining bed flag for each layer:
   0   0   0

                     DELR =   1000.00    

                     DELC =   1000.00    



           TOP ELEVATION OF LAYER 1
 READING ON UNIT   11 WITH FORMAT: (50E15.6)           



             MODEL LAYER BOTTOM EL. FOR LAYER   1
 READING ON UNIT   11 WITH FORMAT: (50E15.6)           



             MODEL LAYER BOTTOM EL. FOR LAYER   2
 READING ON UNIT   11 WITH FORMAT: (50E15.6)           



             MODEL LAYER BOTTOM EL. FOR LAYER   3
 READING ON UNIT   11 WITH FORMAT: (50E15.6)           


 STRESS PERIOD     LENGTH       TIME STEPS     MULTIPLIER FOR DELT    SS FLAG
 ----------------------------------------------------------------------------
        1         180.0000          1                    1.000         SS

 STEADY-STATE SIMULATION



 
 # BAS6 package for  MODFLOW-2005, generated by Flopy.                           
 THE FREE FORMAT OPTION HAS BEEN SELECTED



                     BOUNDARY ARRAY FOR LAYER   1
 READING ON UNIT   13 WITH FORMAT: (50I10)             



                     BOUNDARY ARRAY FOR LAYER   2
 READING ON UNIT   13 WITH FORMAT: (50I10)             



                     BOUNDARY ARRAY FOR LAYER   3
 READING ON UNIT   13 WITH FORMAT: (50I10)             

 AQUIFER HEAD WILL BE SET TO  -999.99     AT ALL NO-FLOW NODES (IBOUND=0).



                       INITIAL HEAD FOR LAYER   1
 READING ON UNIT   13 WITH FORMAT: (50E15.6)           



                       INITIAL HEAD FOR LAYER   2
 READING ON UNIT   13 WITH FORMAT: (50E15.6)           



                       INITIAL HEAD FOR LAYER   3
 READING ON UNIT   13 WITH FORMAT: (50E15.6)           
 # OC package for  MODFLOW-2005, generated by Flopy.

 OUTPUT CONTROL IS SPECIFIED ONLY AT TIME STEPS FOR WHICH OUTPUT IS DESIRED
 COMPACT CELL-BY-CELL BUDGET FILES WILL BE WRITTEN
 AUXILIARY DATA WILL BE SAVED IN CELL-BY-CELL BUDGET FILES
 HEAD PRINT FORMAT CODE IS   0    DRAWDOWN PRINT FORMAT CODE IS   0
 HEADS WILL BE SAVED ON UNIT   51    DRAWDOWNS WILL BE SAVED ON UNIT   52

 LPF -- LAYER-PROPERTY FLOW PACKAGE, VERSION 7, 5/2/2005
         INPUT READ FROM UNIT   15
 # LPF package for  MODFLOW-2005, generated by Flopy.
 CELL-BY-CELL FLOWS WILL BE SAVED ON UNIT   53
 HEAD AT CELLS THAT CONVERT TO DRY= -1.00000E+30
 No named parameters

   LAYER FLAGS:
 LAYER       LAYTYP        LAYAVG         CHANI        LAYVKA        LAYWET
 ---------------------------------------------------------------------------
    1             1             0     0.000E+00             0             0
    2             1             0     0.000E+00             0             0
    3             1             0     0.000E+00             0             0

   INTERPRETATION OF LAYER FLAGS:
                        INTERBLOCK     HORIZONTAL    DATA IN
         LAYER TYPE   TRANSMISSIVITY   ANISOTROPY   ARRAY VKA   WETTABILITY
 LAYER      (LAYTYP)      (LAYAVG)       (CHANI)      (LAYVKA)      (LAYWET)
 ---------------------------------------------------------------------------
    1   CONVERTIBLE      HARMONIC      VARIABLE    VERTICAL K  NON-WETTABLE
    2   CONVERTIBLE      HARMONIC      VARIABLE    VERTICAL K  NON-WETTABLE
    3   CONVERTIBLE      HARMONIC      VARIABLE    VERTICAL K  NON-WETTABLE

 WETTING CAPABILITY IS NOT ACTIVE IN ANY LAYER

    HYD. COND. ALONG ROWS =   25.0000     FOR LAYER   1

   HORIZ. ANI. (COL./ROW) =   1.00000     FOR LAYER   1



                VERTICAL HYD. COND. FOR LAYER   1
 READING ON UNIT   15 WITH FORMAT: (50E15.6)           

    HYD. COND. ALONG ROWS =   25.0000     FOR LAYER   2

   HORIZ. ANI. (COL./ROW) =   1.00000     FOR LAYER   2



                VERTICAL HYD. COND. FOR LAYER   2
 READING ON UNIT   15 WITH FORMAT: (50E15.6)           

    HYD. COND. ALONG ROWS =   25.0000     FOR LAYER   3

   HORIZ. ANI. (COL./ROW) =   1.00000     FOR LAYER   3



                VERTICAL HYD. COND. FOR LAYER   3
 READING ON UNIT   15 WITH FORMAT: (50E15.6)           

 WEL -- WELL PACKAGE, VERSION 7, 5/2/2005 INPUT READ FROM UNIT   20
 # WEL package for  MODFLOW-2005, generated by Flopy.
 No named parameters
 MAXIMUM OF      2 ACTIVE WELLS AT ONE TIME


     0 Well parameters

 EVT -- EVAPOTRANSPIRATION PACKAGE, VERSION 7, 5/2/2005
         INPUT READ FROM UNIT   22
 # EVT package for  MODFLOW-2005, generated by Flopy.
 No named parameters
 OPTION 3 -- EVAPOTRANSPIRATION FROM HIGHEST ACTIVE NODE IN EACH VERTICAL COLUMN
 CELL-BY-CELL FLOWS WILL BE SAVED ON UNIT   53


     0 Evapotranspiration parameters

 RCH -- RECHARGE PACKAGE, VERSION 7, 5/2/2005 INPUT READ FROM UNIT   19
 # RCH package for  MODFLOW-2005, generated by Flopy.
 No named parameters
 OPTION 3 -- RECHARGE TO HIGHEST ACTIVE NODE IN EACH VERTICAL COLUMN


     0 Recharge parameters

 STR -- STREAM PACKAGE, VERSION 7, 5/2/2005 INPUT READ FROM UNIT  118
 # STR package for  MODFLOW-2005, generated by Flopy.
 No named parameters
 MAXIMUM OF     49 ACTIVE STREAM NODES AT ONE TIME
 NUMBER OF STREAM SEGMENTS IS      3
 NUMBER OF STREAM TRIBUTARIES IS      2
 STREAM STAGES WILL BE CALCULATED USING A CONSTANT OF 86400.0000
 CELL BUDGETS WILL BE SAVED ON UNITS   53 AND   53


     0 Stream parameters

 PCG -- CONJUGATE-GRADIENT SOLUTION PACKAGE, VERSION 7, 5/2/2005
 # PCG package for  MODFLOW-2005, generated by Flopy.
 MAXIMUM OF     50 CALLS OF SOLUTION ROUTINE
 MAXIMUM OF     30 INTERNAL ITERATIONS PER CALL TO SOLUTION ROUTINE
 MATRIX PRECONDITIONING TYPE :    1



                                    SOLUTION BY THE CONJUGATE-GRADIENT METHOD
                                   -------------------------------------------
                    MAXIMUM NUMBER OF CALLS TO PCG ROUTINE =       50
                        MAXIMUM ITERATIONS PER CALL TO PCG =       30
                               MATRIX PRECONDITIONING TYPE =        1
        RELAXATION FACTOR (ONLY USED WITH PRECOND. TYPE 1) =    0.10000E+01
 PARAMETER OF POLYNOMIAL PRECOND. = 2 (2) OR IS CALCULATED :        0
                         HEAD CHANGE CRITERION FOR CLOSURE =    0.10000E-04
                     RESIDUAL CHANGE CRITERION FOR CLOSURE =    0.10000E-04
            PCG HEAD AND RESIDUAL CHANGE PRINTOUT INTERVAL =      999
     PRINTING FROM SOLVER IS LIMITED(1) OR SUPPRESSED (>1) =        3
                            STEADY-STATE DAMPING PARAMETER =    0.10000E+01
                               TRANSIENT DAMPING PARAMETER =    0.10000E+01
1
                            STRESS PERIOD NO.    1, LENGTH =   180.0000    
                            -----------------------------------------------

                              NUMBER OF TIME STEPS =     1

                               MULTIPLIER FOR DELT =     1.000

                            INITIAL TIME STEP SIZE =   180.0000    

 WELL NO.  LAYER   ROW   COL   STRESS RATE         
 --------------------------------------------------
      1      3     21     38      -1810.    
      2      1     19     19      -5143.    

      2 WELLS



                         ET SURFACE
 READING ON UNIT   22 WITH FORMAT: (50E15.6)           



            EVAPOTRANSPIRATION RATE
 READING ON UNIT   22 WITH FORMAT: (50E15.6)           



                   EXTINCTION DEPTH
 READING ON UNIT   22 WITH FORMAT: (50E15.6)           



                           RECHARGE
 READING ON UNIT   19 WITH FORMAT: (50E15.6)           

     49 STREAM REACHES
 
 SOLVING FOR HEAD 

 OUTPUT CONTROL FOR STRESS PERIOD    1   TIME STEP    1
    SAVE HEAD FOR ALL LAYERS
    SAVE DRAWDOWN FOR ALL LAYERS
    SAVE BUDGET
    PRINT HEAD FOR ALL LAYERS
    PRINT BUDGET
 UBDSV2 SAVING "   CONSTANT HEAD" ON UNIT  53 AT TIME STEP  1, STRESS PERIOD   1
 UBDSV1 SAVING "FLOW RIGHT FACE " ON UNIT  53 AT TIME STEP  1, STRESS PERIOD   1
 UBDSV1 SAVING "FLOW FRONT FACE " ON UNIT  53 AT TIME STEP  1, STRESS PERIOD   1
 UBDSV1 SAVING "FLOW LOWER FACE " ON UNIT  53 AT TIME STEP  1, STRESS PERIOD   1
 UBDSV3 SAVING "              ET" ON UNIT  53 AT TIME STEP  1, STRESS PERIOD   1
 UBDSV4 SAVING "  STREAM LEAKAGE" ON UNIT  53 AT TIME STEP  1, STRESS PERIOD   1
 UBDSV4 SAVING "STREAM FLOW OUT " ON UNIT  53 AT TIME STEP  1, STRESS PERIOD   1
1
              HEAD IN LAYER   1 AT END OF TIME STEP   1 IN STRESS PERIOD    1
  ---------------------------------------------------------------------------

            1           2           3           4           5           6           7           8           9          10
           11          12          13          14          15          16          17          18          19          20
           21          22          23          24          25          26          27          28          29          30
           31          32          33          34          35          36          37          38          39          40
           41          42          43          44          45          46          47          48          49          50
 ........................................................................................................................
   1  -1000.0     -1000.0     -1000.0     -1000.0     -1000.0     -1000.0       69.44       69.43       69.41       69.39    
        69.37       69.36       69.34       69.33       69.31       69.29       69.28       69.27       69.26       69.25    
        69.25       69.25       69.25       69.26       69.27       69.28       69.29       69.31       69.32       69.34    
        69.37       69.39       69.41       69.44       69.47       69.50       69.53       69.56       69.59       69.63    
        69.66       69.70       69.73       69.77       69.81       69.84       69.88       69.92       69.96       70.00    
   2  -1000.0     -1000.0     -1000.0     -1000.0     -1000.0       69.45       69.44       69.42       69.41       69.39    
        69.37       69.36       69.34       69.33       69.31       69.29       69.28       69.26       69.25       69.25    
        69.24       69.24       69.25       69.25       69.26       69.27       69.29       69.30       69.32       69.34    
        69.36       69.39       69.41       69.44       69.47       69.50       69.53       69.56       69.59       69.62    
        69.66       69.70       69.73       69.77       69.81       69.84       69.88       69.92       69.96       70.00    
   3  -1000.0     -1000.0     -1000.0     -1000.0       69.46       69.45       69.44       69.42       69.40       69.39    
        69.37       69.36       69.34       69.32       69.30       69.29       69.27       69.26       69.25       69.24    
        69.24       69.24       69.24       69.25       69.26       69.27       69.28       69.30       69.32       69.34    
        69.36       69.38       69.41       69.44       69.46       69.49       69.52       69.56       69.59       69.62    
        69.66       69.69       69.73       69.77       69.81       69.84       69.88       69.92       69.96       70.00    
   4  -1000.0     -1000.0     -1000.0       69.47       69.46       69.45       69.43       69.41       69.40       69.38    
        69.37       69.35       69.33       69.32       69.30       69.28       69.26       69.25       69.24       69.23    
        69.23       69.23       69.23       69.24       69.25       69.26       69.28       69.29       69.31       69.33    
        69.35       69.38       69.40       69.43       69.46       69.49       69.52       69.55       69.59       69.62    
        69.66       69.69       69.73       69.77       69.80       69.84       69.88       69.92       69.96       70.00    
   5  -1000.0     -1000.0       69.48       69.47       69.46       69.44       69.43       69.41       69.40       69.38    
        69.36       69.35       69.33       69.31       69.29       69.27       69.25       69.24       69.23       69.22    
        69.22       69.22       69.22       69.23       69.24       69.25       69.27       69.28       69.30       69.33    
        69.35       69.37       69.40       69.43       69.45       69.48       69.52       69.55       69.58       69.62    
        69.65       69.69       69.73       69.76       69.80       69.84       69.88       69.92       69.96       70.00    
   6  -1000.0       69.49       69.48       69.47       69.46       69.44       69.42       69.41       69.39       69.38    
        69.36       69.34       69.32       69.29       69.27       69.25       69.23       69.22       69.21       69.20    
        69.20       69.20       69.21       69.21       69.23       69.24       69.26       69.27       69.29       69.32    
        69.34       69.36       69.39       69.42       69.45       69.48       69.51       69.54       69.58       69.61    
        69.65       69.68       69.72       69.76       69.80       69.84       69.88       69.92       69.96       70.00    
   7    69.50       69.49       69.48       69.47       69.45       69.44       69.42       69.41       69.39       69.37    
        69.35       69.33       69.30       69.28       69.26       69.23       69.22       69.20       69.19       69.18    
        69.18       69.18       69.19       69.20       69.21       69.23       69.24       69.26       69.28       69.31    
        69.33       69.36       69.38       69.41       69.44       69.47       69.50       69.54       69.57       69.61    
        69.64       69.68       69.72       69.76       69.80       69.84       69.88       69.92       69.96       70.00    
   8    69.49       69.49       69.48       69.46       69.45       69.44       69.42       69.40       69.38       69.36    
        69.34       69.31       69.29       69.26       69.24       69.21       69.19       69.18       69.16       69.16    
        69.16       69.16       69.17       69.18       69.19       69.21       69.23       69.25       69.27       69.29    
        69.32       69.35       69.37       69.40       69.43       69.46       69.49       69.53       69.56       69.60    
        69.64       69.67       69.71       69.75       69.79       69.83       69.87       69.92       69.96       70.00    
   9    69.49       69.48       69.47       69.46       69.45       69.43       69.42       69.40       69.38       69.35    
        69.33       69.30       69.27       69.24       69.21       69.19       69.17       69.15       69.14       69.13    
        69.13       69.13       69.14       69.15       69.17       69.19       69.21       69.23       69.26       69.28    
        69.31       69.33       69.36       69.39       69.42       69.45       69.48       69.52       69.55       69.59    
        69.63       69.67       69.71       69.75       69.79       69.83       69.87       69.91       69.96       70.00    
  10    69.48       69.48       69.47       69.46       69.45       69.43       69.41       69.39       69.37       69.34    
        69.31       69.28       69.25       69.22       69.19       69.16       69.13       69.11       69.10       69.09    
        69.09       69.10       69.11       69.13       69.15       69.17       69.19       69.21       69.24       69.27    
        69.29       69.32       69.35       69.38       69.41       69.44       69.47       69.51       69.54       69.58    
        69.62       69.66       69.70       69.74       69.78       69.83       69.87       69.91       69.96       70.00    
  11    69.48       69.48       69.47       69.46       69.44       69.43       69.41       69.38       69.36       69.33    
        69.30       69.26       69.23       69.19       69.16       69.12       69.09       69.07       69.06       69.05    
        69.05       69.06       69.08       69.10       69.12       69.14       69.17       69.20       69.22       69.25    
        69.28       69.31       69.34       69.37       69.40       69.43       69.46       69.50       69.53       69.57    
        69.61       69.65       69.69       69.73       69.78       69.82       69.87       69.91       69.96       70.00    
  12    69.48       69.48       69.47       69.46       69.44       69.42       69.40       69.38       69.35       69.32    
        69.28       69.24       69.20       69.16       69.12       69.08       69.05       69.02       69.01       69.00    
        69.01       69.02       69.04       69.07       69.09       69.12       69.15       69.18       69.21       69.24    
        69.26       69.29       69.32       69.35       69.38       69.41       69.45       69.48       69.52       69.56    
        69.60       69.64       69.68       69.73       69.77       69.82       69.86       69.91       69.95       70.00    
  13    69.48       69.48       69.47       69.46       69.44       69.42       69.40       69.37       69.34       69.31    
        69.27       69.22       69.18       69.13       69.08       69.04       68.99       68.96       68.95       68.94    
        68.95       68.97       69.00       69.03       69.06       69.09       69.13       69.16       69.19       69.22    
        69.25       69.28       69.31       69.34       69.37       69.40       69.43       69.47       69.50       69.54    
        69.59       69.63       69.67       69.72       69.77       69.81       69.86       69.91       69.95       70.00    
  14    69.48       69.48       69.47       69.46       69.44       69.42       69.40       69.37       69.33       69.29    
        69.25       69.20       69.15       69.10       69.04       68.98       68.93       68.89       68.87       68.87    
        68.89       68.92       68.95       68.99       69.03       69.07       69.11       69.14       69.17       69.21    
        69.24       69.27       69.29       69.32       69.35       69.38       69.41       69.45       69.49       69.53    
        69.57       69.62       69.66       69.71       69.76       69.81       69.86       69.90       69.95       70.00    
  15    69.48       69.48       69.47       69.46       69.44       69.42       69.39       69.36       69.33       69.29    
        69.24       69.19       69.13       69.06       68.99       68.92       68.86       68.80       68.78       68.78    
        68.81       68.85       68.90       68.95       69.00       69.05       69.09       69.13       69.16       69.19    
        69.22       69.25       69.28       69.31       69.33       69.36       69.39       69.43       69.47       69.51    
        69.55       69.60       69.65       69.70       69.75       69.80       69.85       69.90       69.95       70.00    
  16    69.49       69.48       69.48       69.46       69.44       69.42       69.39       69.36       69.32       69.28    
        69.23       69.17       69.10       69.03       68.95       68.86       68.77       68.69       68.65       68.66    
        68.72       68.79       68.85       68.92       68.97       69.03       69.07       69.11       69.15       69.18    
        69.21       69.24       69.27       69.29       69.31       69.34       69.37       69.40       69.44       69.49    
        69.54       69.59       69.64       69.69       69.75       69.80       69.85       69.90       69.95       70.00    
  17    69.49       69.49       69.48       69.47       69.45       69.43       69.40       69.36       69.32       69.28    
        69.22       69.16       69.09       69.00       68.90       68.79       68.66       68.54       68.46       68.51    
        68.62       68.72       68.81       68.89       68.95       69.01       69.06       69.10       69.14       69.18    
        69.20       69.23       69.25       69.27       69.29       69.31       69.34       69.37       69.41       69.46    
        69.52       69.57       69.63       69.68       69.74       69.79       69.85       69.90       69.95       70.00    
  18    69.50       69.50       69.49       69.47       69.46       69.43       69.40       69.37       69.33       69.28    
        69.22       69.16       69.08       68.98       68.87       68.73       68.56       68.34       68.12       68.32    
        68.51       68.66       68.78       68.87       68.94       69.00       69.06       69.10       69.14       69.17    
        69.20       69.22       69.24       69.26       69.27       69.28       69.30       69.33       69.37       69.43    
        69.49       69.56       69.62       69.68       69.73       69.79       69.84       69.90       69.95       70.00    
  19    69.51       69.51       69.50       69.48       69.46       69.44       69.41       69.38       69.33       69.29    
        69.23       69.16       69.08       68.98       68.87       68.71       68.50       68.14       67.37       68.12    
        68.45       68.64       68.77       68.87       68.94       69.01       69.06       69.10       69.14       69.17    
        69.20       69.22       69.24       69.25       69.25       69.25       69.25       69.26       69.32       69.40    
        69.47       69.54       69.61       69.67       69.73       69.79       69.84       69.89       69.95       70.00    
  20    69.52       69.52       69.51       69.49       69.48       69.45       69.42       69.39       69.35       69.30    
        69.24       69.17       69.10       69.00       68.89       68.75       68.58       68.36       68.14       68.33    
        68.53       68.68       68.79       68.88       68.96       69.02       69.07       69.11       69.15       69.18    
        69.20       69.22       69.24       69.24       69.24       69.22       69.18       69.15       69.26       69.36    
        69.45       69.53       69.60       69.67       69.73       69.79       69.84       69.89       69.95       70.00    
  21    69.53       69.53       69.52       69.51       69.49       69.47       69.44       69.40       69.36       69.32    
        69.26       69.20       69.12       69.04       68.94       68.83       68.70       68.57       68.49       68.55    
        68.65       68.75       68.84       68.92       68.98       69.04       69.09       69.13       69.16       69.19    
        69.22       69.23       69.24       69.25       69.24       69.20       69.12       68.90       69.19       69.35    
        69.45       69.53       69.60       69.67       69.73       69.79       69.84       69.90       69.95       70.00    
  22    69.55       69.54       69.54       69.52       69.50       69.48       69.45       69.42       69.38       69.34    
        69.29       69.23       69.16       69.09       69.00       68.91       68.82       68.74       68.70       68.72    
        68.77       68.84       68.90       68.96       69.02       69.07       69.11       69.15       69.18       69.21    
        69.23       69.25       69.26       69.26       69.26       69.24       69.20       69.16       69.27       69.38    
        69.47       69.54       69.61       69.67       69.73       69.79       69.84       69.90       69.95       70.00    
  23    69.56       69.56       69.55       69.54       69.52       69.50       69.47       69.44       69.41       69.36    
        69.32       69.26       69.20       69.14       69.07       69.00       68.93       68.88       68.85       68.85    
        68.88       68.92       68.97       69.02       69.06       69.10       69.14       69.18       69.21       69.23    
        69.25       69.27       69.28       69.29       69.29       69.29       69.28       69.29       69.35       69.42    
        69.49       69.56       69.62       69.68       69.74       69.79       69.85       69.90       69.95       70.00    
  24    69.58       69.58       69.57       69.56       69.54       69.52       69.49       69.47       69.43       69.39    
        69.35       69.30       69.25       69.19       69.13       69.08       69.02       68.98       68.96       68.96    
        68.97       69.00       69.03       69.07       69.11       69.14       69.18       69.21       69.23       69.26    
        69.28       69.30       69.31       69.32       69.33       69.34       69.35       69.37       69.41       69.47    
        69.53       69.58       69.64       69.70       69.75       69.80       69.85       69.90       69.95       70.00    
  25    69.60       69.59       69.59       69.58       69.56       69.54       69.52       69.49       69.46       69.42    
        69.38       69.34       69.30       69.25       69.20       69.15       69.11       69.07       69.05       69.05    
        69.06       69.07       69.10       69.12       69.15       69.18       69.21       69.24       69.27       69.29    
        69.31       69.33       69.34       69.36       69.37       69.38       69.40       69.43       69.47       69.51    
        69.56       69.61       69.66       69.71       69.76       69.81       69.86       69.91       69.95       70.00    
  26    69.62       69.61       69.61       69.60       69.58       69.56       69.54       69.52       69.49       69.46    
        69.42       69.38       69.34       69.30       69.26       69.21       69.18       69.15       69.13       69.13    
        69.13       69.14       69.16       69.18       69.20       69.23       69.25       69.28       69.30       69.32    
        69.34       69.36       69.38       69.39       69.41       69.43       69.45       69.48       69.51       69.55    
        69.59       69.63       69.68       69.72       69.77       69.82       69.86       69.91       69.95       70.00    
  27    69.64       69.63       69.63       69.62       69.60       69.59       69.57       69.54       69.52       69.49    
        69.46       69.42       69.38       69.35       69.31       69.27       69.24       69.22       69.20       69.19    
        69.19       69.20       69.21       69.23       69.25       69.27       69.29       69.31       69.33       69.35    
        69.37       69.39       69.40       69.42       69.44       69.46       69.48       69.51       69.54       69.58    
        69.61       69.65       69.70       69.74       69.78       69.83       69.87       69.91       69.96       70.00    
  28    69.66       69.65       69.65       69.64       69.63       69.61       69.59       69.57       69.55       69.52    
        69.49       69.46       69.43       69.39       69.36       69.33       69.30       69.28       69.26       69.25    
        69.25       69.25       69.26       69.27       69.29       69.30       69.32       69.34       69.36       69.38    
        69.39       69.41       69.43       69.45       69.47       69.49       69.51       69.54       69.57       69.60    
        69.64       69.67       69.71       69.75       69.79       69.83       69.88       69.92       69.96       70.00    
  29    69.68       69.67       69.67       69.66       69.65       69.63       69.62       69.60       69.58       69.55    
        69.52       69.50       69.47       69.44       69.41       69.38       69.35       69.33       69.32       69.31    
        69.30       69.30       69.31       69.32       69.33       69.34       69.36       69.37       69.39       69.40    
        69.42       69.44       69.46       69.48       69.50       69.52       69.54       69.57       69.60       69.63    
        69.66       69.69       69.73       69.77       69.80       69.84       69.88       69.92       69.96       70.00    
  30    69.70       69.70       69.69       69.68       69.67       69.66       69.64       69.62       69.60       69.58    
        69.56       69.53       69.50       69.48       69.45       69.42       69.40       69.38       69.37       69.36    
        69.35       69.35       69.35       69.36       69.37       69.38       69.39       69.40       69.42       69.43    
        69.45       69.47       69.48       69.50       69.52       69.54       69.57       69.59       69.62       69.65    
        69.68       69.71       69.74       69.78       69.82       69.85       69.89       69.93       69.96       70.00    
  31    69.72       69.72       69.71       69.70       69.69       69.68       69.67       69.65       69.63       69.61    
        69.59       69.56       69.54       69.51       69.49       69.46       69.44       69.42       69.41       69.40    
        69.39       69.39       69.39       69.39       69.40       69.41       69.42       69.43       69.45       69.46    
        69.47       69.49       69.51       69.53       69.55       69.57       69.59       69.61       69.64       69.67    
        69.70       69.73       69.76       69.79       69.82       69.86       69.89       69.93       69.96       70.00    
  32    69.74       69.74       69.73       69.72       69.72       69.70       69.69       69.67       69.66       69.64    
        69.62       69.60       69.57       69.55       69.53       69.50       69.48       69.46       69.45       69.44    
        69.43       69.43       69.43       69.43       69.43       69.44       69.45       69.46       69.47       69.49    
        69.50       69.51       69.53       69.55       69.57       69.59       69.61       69.63       69.66       69.68    
        69.71       69.74       69.77       69.80       69.83       69.87       69.90       69.93       69.97       70.00    
  33    69.76       69.76       69.75       69.74       69.74       69.73       69.71       69.70       69.68       69.66    
        69.65       69.63       69.60       69.58       69.56       69.54       69.52       69.50       69.49       69.48    
        69.47       69.46       69.46       69.46       69.47       69.47       69.48       69.49       69.50       69.51    
        69.52       69.54       69.55       69.57       69.59       69.61       69.63       69.65       69.67       69.70    
        69.73       69.75       69.78       69.81       69.84       69.87       69.90       69.94       69.97       70.00    
  34    69.78       69.77       69.77       69.76       69.76       69.75       69.73       69.72       69.71       69.69    
        69.67       69.65       69.63       69.61       69.59       69.57       69.55       69.53       69.52       69.51    
        69.50       69.50       69.49       69.49       69.50       69.50       69.51       69.51       69.52       69.53    
        69.55       69.56       69.57       69.59       69.61       69.63       69.65       69.67       69.69       69.71    
        69.74       69.77       69.79       69.82       69.85       69.88       69.91       69.94       69.97       70.00    
  35    69.79       69.79       69.79       69.78       69.78       69.77       69.76       69.74       69.73       69.71    
        69.70       69.68       69.66       69.64       69.62       69.60       69.58       69.56       69.55       69.54    
        69.53       69.53       69.52       69.52       69.52       69.53       69.53       69.54       69.55       69.56    
        69.57       69.58       69.59       69.61       69.63       69.64       69.66       69.68       69.71       69.73    
        69.75       69.78       69.80       69.83       69.86       69.89       69.91       69.94       69.97       70.00    
  36    69.81       69.81       69.81       69.80       69.79       69.79       69.78       69.76       69.75       69.74    
        69.72       69.70       69.68       69.67       69.65       69.63       69.61       69.59       69.58       69.57    
        69.56       69.55       69.55       69.55       69.55       69.55       69.55       69.56       69.57       69.58    
        69.59       69.60       69.61       69.63       69.64       69.66       69.68       69.70       69.72       69.74    
        69.76       69.79       69.81       69.84       69.86       69.89       69.92       69.94       69.97       70.00    
  37    69.83       69.82       69.82       69.82       69.81       69.80       69.79       69.78       69.77       69.76    
        69.74       69.72       69.71       69.69       69.67       69.65       69.63       69.62       69.60       69.59    
        69.58       69.58       69.57       69.57       69.57       69.57       69.58       69.58       69.59       69.60    
        69.61       69.62       69.63       69.64       69.66       69.68       69.69       69.71       69.73       69.75    
        69.77       69.80       69.82       69.84       69.87       69.90       69.92       69.95       69.97       70.00    
  38    69.84       69.84       69.84       69.83       69.83       69.82       69.81       69.80       69.79       69.77    
        69.76       69.74       69.73       69.71       69.69       69.67       69.65       69.64       69.63       69.62    
        69.61       69.60       69.60       69.59       69.59       69.59       69.60       69.60       69.61       69.61    
        69.62       69.63       69.65       69.66       69.67       69.69       69.71       69.72       69.74       69.76    
        69.78       69.81       69.83       69.85       69.88       69.90       69.92       69.95       69.97       70.00    
  39    69.85       69.85       69.85       69.85       69.84       69.83       69.83       69.82       69.80       69.79    
        69.78       69.76       69.75       69.73       69.71       69.69       69.68       69.66       69.65       69.64    
        69.63       69.62       69.62       69.61       69.61       69.61       69.61       69.62       69.62       69.63    
        69.64       69.65       69.66       69.67       69.69       69.70       69.72       69.74       69.75       69.77    
        69.79       69.81       69.84       69.86       69.88       69.90       69.93       69.95       69.98       70.00    
  40    69.86       69.86       69.86       69.86       69.85       69.85       69.84       69.83       69.82       69.81    
        69.79       69.78       69.76       69.75       69.73       69.71       69.69       69.68       69.67       69.66    
        69.65       69.64       69.63       69.63       69.63       69.63       69.63       69.63       69.64       69.65    
        69.65       69.66       69.67       69.69       69.70       69.71       69.73       69.75       69.76       69.78    
        69.80       69.82       69.84       69.86       69.89       69.91       69.93       69.95       69.98       70.00    
  41    69.88       69.87       69.87       69.87       69.87       69.86       69.85       69.84       69.83       69.82    
        69.81       69.79       69.78       69.76       69.75       69.73       69.71       69.70       69.68       69.67    
        69.66       69.66       69.65       69.65       69.64       69.64       69.65       69.65       69.65       69.66    
        69.67       69.68       69.69       69.70       69.71       69.72       69.74       69.75       69.77       69.79    
        69.81       69.83       69.85       69.87       69.89       69.91       69.93       69.96       69.98       70.00    
  42    69.89       69.89       69.88       69.88       69.88       69.87       69.86       69.85       69.85       69.83    
        69.82       69.81       69.79       69.78       69.76       69.74       69.73       69.71       69.70       69.69    
        69.68       69.67       69.66       69.66       69.66       69.66       69.66       69.66       69.67       69.67    
        69.68       69.69       69.70       69.71       69.72       69.73       69.75       69.76       69.78       69.80    
        69.81       69.83       69.85       69.87       69.89       69.91       69.93       69.96       69.98       70.00    
  43    69.91       69.90       69.90       69.89       69.88       69.88       69.87       69.86       69.86       69.84    
        69.83       69.82       69.81       69.79       69.77       69.75       69.74       69.72       69.71       69.70    
        69.69       69.68       69.68       69.67       69.67       69.67       69.67       69.67       69.68       69.68    
        69.69       69.70       69.71       69.72       69.73       69.74       69.76       69.77       69.79       69.80    
        69.82       69.84       69.86       69.88       69.90       69.92       69.94       69.96       69.98       70.00    
  44    69.91       69.91       69.91       69.90       69.89       69.89       69.88       69.87       69.86       69.85    
        69.84       69.83       69.82       69.80       69.78       69.77       69.75       69.74       69.72       69.71    
        69.70       69.69       69.69       69.68       69.68       69.68       69.68       69.68       69.69       69.69    
        69.70       69.71       69.71       69.72       69.74       69.75       69.76       69.78       69.79       69.81    
        69.82       69.84       69.86       69.88       69.90       69.92       69.94       69.96       69.98       70.00    
  45  -1000.0       69.92       69.92       69.91       69.91       69.89       69.89       69.88       69.87       69.86    
        69.85       69.84       69.82       69.81       69.79       69.77       69.76       69.74       69.73       69.72    
        69.71       69.70       69.70       69.69       69.69       69.69       69.69       69.69       69.70       69.70    
        69.71       69.71       69.72       69.73       69.74       69.75       69.77       69.78       69.80       69.81    
        69.83       69.85       69.86       69.88       69.90       69.92       69.94       69.96       69.98       70.00    
  46  -1000.0     -1000.0       69.92       69.92       69.91       69.91       69.89       69.89       69.88       69.87    
        69.86       69.84       69.83       69.82       69.80       69.78       69.77       69.75       69.74       69.73    
        69.72       69.71       69.71       69.70       69.70       69.70       69.70       69.70       69.70       69.71    
        69.71       69.72       69.73       69.74       69.75       69.76       69.77       69.79       69.80       69.82    
        69.83       69.85       69.87       69.88       69.90       69.92       69.94       69.96       69.98       70.00    
  47  -1000.0     -1000.0     -1000.0       69.93       69.92       69.91       69.90       69.89       69.88       69.87    
        69.86       69.85       69.84       69.82       69.81       69.79       69.77       69.76       69.75       69.74    
        69.73       69.72       69.71       69.71       69.70       69.70       69.70       69.70       69.71       69.71    
        69.72       69.72       69.73       69.74       69.75       69.76       69.78       69.79       69.80       69.82    
        69.83       69.85       69.87       69.89       69.90       69.92       69.94       69.96       69.98       70.00    
  48  -1000.0     -1000.0     -1000.0     -1000.0       69.92       69.92       69.91       69.90       69.88       69.88    
        69.87       69.85       69.84       69.83       69.81       69.79       69.78       69.76       69.75       69.74    
        69.73       69.72       69.72       69.71       69.71       69.71       69.71       69.71       69.71       69.72    
        69.72       69.73       69.74       69.74       69.76       69.77       69.78       69.79       69.81       69.82    
        69.84       69.85       69.87       69.89       69.91       69.92       69.94       69.96       69.98       70.00    
  49  -1000.0     -1000.0     -1000.0     -1000.0     -1000.0       69.92       69.91       69.90       69.89       69.88    
        69.87       69.86       69.84       69.83       69.81       69.80       69.78       69.77       69.75       69.74    
        69.73       69.73       69.72       69.72       69.71       69.71       69.71       69.71       69.71       69.72    
        69.72       69.73       69.74       69.75       69.76       69.77       69.78       69.79       69.81       69.82    
        69.84       69.85       69.87       69.89       69.91       69.92       69.94       69.96       69.98       70.00    
  50  -1000.0     -1000.0     -1000.0     -1000.0     -1000.0     -1000.0       69.92       69.91       69.90       69.88    
        69.87       69.86       69.84       69.83       69.81       69.80       69.78       69.77       69.76       69.74    
        69.74       69.73       69.72       69.72       69.71       69.71       69.71       69.71       69.72       69.72    
        69.72       69.73       69.74       69.75       69.76       69.77       69.78       69.79       69.81       69.82    
        69.84       69.86       69.87       69.89       69.91       69.93       69.94       69.96       69.98       70.00    
1
              HEAD IN LAYER   2 AT END OF TIME STEP   1 IN STRESS PERIOD    1
  ---------------------------------------------------------------------------

            1           2           3           4           5           6           7           8           9          10
           11          12          13          14          15          16          17          18          19          20
           21          22          23          24          25          26          27          28          29          30
           31          32          33          34          35          36          37          38          39          40
           41          42          43          44          45          46          47          48          49          50
 ........................................................................................................................
   1  -1000.0     -1000.0     -1000.0     -1000.0     -1000.0     -1000.0     -1000.0     -1000.0       69.41       69.39    
        69.37       69.36       69.34       69.33       69.31       69.29       69.28       69.27       69.26       69.25    
        69.25       69.25       69.25       69.26       69.27       69.28       69.29       69.31       69.32       69.34    
        69.37       69.39       69.41       69.44       69.47       69.50       69.53       69.56       69.59       69.63    
        69.66       69.70       69.73       69.77       69.81       69.84       69.88       69.92       69.96       70.00    
   2  -1000.0     -1000.0     -1000.0     -1000.0     -1000.0     -1000.0     -1000.0       69.42       69.41       69.39    
        69.37       69.36       69.34       69.33       69.31       69.29       69.28       69.26       69.25       69.25    
        69.24       69.24       69.25       69.25       69.26       69.27       69.29       69.30       69.32       69.34    
        69.36       69.39       69.41       69.44       69.47       69.50       69.53       69.56       69.59       69.62    
        69.66       69.70       69.73       69.77       69.81       69.84       69.88       69.92       69.96       70.00    
   3  -1000.0     -1000.0     -1000.0     -1000.0     -1000.0     -1000.0       69.44       69.42       69.40       69.39    
        69.37       69.36       69.34       69.32       69.30       69.29       69.27       69.26       69.25       69.24    
        69.24       69.24       69.24       69.25       69.26       69.27       69.28       69.30       69.32       69.34    
        69.36       69.38       69.41       69.44       69.46       69.49       69.52       69.56       69.59       69.62    
        69.66       69.69       69.73       69.77       69.81       69.84       69.88       69.92       69.96       70.00    
   4  -1000.0     -1000.0     -1000.0     -1000.0     -1000.0       69.45       69.43       69.41       69.40       69.38    
        69.37       69.35       69.33       69.32       69.30       69.28       69.26       69.25       69.24       69.23    
        69.23       69.23       69.23       69.24       69.25       69.26       69.28       69.29       69.31       69.33    
        69.35       69.38       69.40       69.43       69.46       69.49       69.52       69.55       69.59       69.62    
        69.66       69.69       69.73       69.77       69.80       69.84       69.88       69.92       69.96       70.00    
   5  -1000.0     -1000.0     -1000.0     -1000.0       69.46       69.44       69.43       69.41       69.40       69.38    
        69.36       69.35       69.33       69.31       69.29       69.27       69.25       69.24       69.23       69.22    
        69.22       69.22       69.22       69.23       69.24       69.25       69.27       69.28       69.30       69.33    
        69.35       69.37       69.40       69.43       69.45       69.48       69.52       69.55       69.58       69.62    
        69.65       69.69       69.73       69.76       69.80       69.84       69.88       69.92       69.96       70.00    
   6  -1000.0     -1000.0     -1000.0       69.47       69.46       69.44       69.42       69.41       69.39       69.38    
        69.36       69.34       69.32       69.29       69.27       69.25       69.23       69.22       69.21       69.20    
        69.20       69.20       69.21       69.21       69.23       69.24       69.26       69.27       69.29       69.32    
        69.34       69.36       69.39       69.42       69.45       69.48       69.51       69.54       69.58       69.61    
        69.65       69.68       69.72       69.76       69.80       69.84       69.88       69.92       69.96       70.00    
   7  -1000.0     -1000.0       69.48       69.47       69.45       69.44       69.42       69.41       69.39       69.37    
        69.35       69.33       69.30       69.28       69.26       69.23       69.22       69.20       69.19       69.18    
        69.18       69.18       69.19       69.20       69.21       69.23       69.24       69.26       69.28       69.31    
        69.33       69.36       69.38       69.41       69.44       69.47       69.50       69.54       69.57       69.61    
        69.64       69.68       69.72       69.76       69.80       69.84       69.88       69.92       69.96       70.00    
   8  -1000.0       69.49       69.48       69.46       69.45       69.44       69.42       69.40       69.38       69.36    
        69.34       69.31       69.29       69.26       69.24       69.21       69.19       69.18       69.16       69.16    
        69.16       69.16       69.17       69.18       69.19       69.21       69.23       69.25       69.27       69.29    
        69.32       69.35       69.37       69.40       69.43       69.46       69.49       69.53       69.56       69.60    
        69.64       69.67       69.71       69.75       69.79       69.83       69.87       69.92       69.96       70.00    
   9    69.49       69.48       69.47       69.46       69.45       69.43       69.42       69.40       69.38       69.35    
        69.33       69.30       69.27       69.24       69.21       69.19       69.17       69.15       69.14       69.13    
        69.13       69.13       69.14       69.15       69.17       69.19       69.21       69.23       69.26       69.28    
        69.31       69.33       69.36       69.39       69.42       69.45       69.48       69.52       69.55       69.59    
        69.63       69.67       69.71       69.75       69.79       69.83       69.87       69.91       69.96       70.00    
  10    69.48       69.48       69.47       69.46       69.45       69.43       69.41       69.39       69.37       69.34    
        69.31       69.28       69.25       69.22       69.19       69.16       69.13       69.11       69.10       69.09    
        69.09       69.10       69.11       69.13       69.15       69.17       69.19       69.21       69.24       69.27    
        69.29       69.32       69.35       69.38       69.41       69.44       69.47       69.51       69.54       69.58    
        69.62       69.66       69.70       69.74       69.78       69.83       69.87       69.91       69.96       70.00    
  11    69.48       69.48       69.47       69.46       69.44       69.43       69.41       69.38       69.36       69.33    
        69.30       69.26       69.23       69.19       69.16       69.12       69.09       69.07       69.06       69.05    
        69.05       69.06       69.08       69.10       69.12       69.14       69.17       69.20       69.22       69.25    
        69.28       69.31       69.34       69.37       69.40       69.43       69.46       69.50       69.53       69.57    
        69.61       69.65       69.69       69.73       69.78       69.82       69.87       69.91       69.96       70.00    
  12    69.48       69.48       69.47       69.46       69.44       69.42       69.40       69.38       69.35       69.32    
        69.28       69.24       69.20       69.16       69.12       69.08       69.05       69.02       69.01       69.00    
        69.01       69.02       69.04       69.07       69.09       69.12       69.15       69.18       69.21       69.24    
        69.26       69.29       69.32       69.35       69.38       69.41       69.45       69.48       69.52       69.56    
        69.60       69.64       69.68       69.73       69.77       69.82       69.86       69.91       69.95       70.00    
  13    69.48       69.48       69.47       69.46       69.44       69.42       69.40       69.37       69.34       69.31    
        69.27       69.22       69.18       69.13       69.08       69.04       68.99       68.96       68.95       68.94    
        68.95       68.97       69.00       69.03       69.06       69.09       69.13       69.16       69.19       69.22    
        69.25       69.28       69.31       69.34       69.37       69.40       69.43       69.47       69.50       69.54    
        69.59       69.63       69.67       69.72       69.77       69.81       69.86       69.91       69.95       70.00    
  14    69.48       69.48       69.47       69.46       69.44       69.42       69.40       69.37       69.33       69.29    
        69.25       69.20       69.15       69.10       69.04       68.98       68.93       68.89       68.87       68.87    
        68.89       68.92       68.95       68.99       69.03       69.07       69.11       69.14       69.17       69.21    
        69.24       69.27       69.29       69.32       69.35       69.38       69.41       69.45       69.49       69.53    
        69.57       69.62       69.66       69.71       69.76       69.81       69.86       69.90       69.95       70.00    
  15    69.48       69.48       69.47       69.46       69.44       69.42       69.39       69.36       69.33       69.29    
        69.24       69.19       69.13       69.06       68.99       68.92       68.86       68.80       68.78       68.78    
        68.81       68.85       68.90       68.95       69.00       69.05       69.09       69.13       69.16       69.19    
        69.22       69.25       69.28       69.31       69.33       69.36       69.39       69.43       69.47       69.51    
        69.55       69.60       69.65       69.70       69.75       69.80       69.85       69.90       69.95       70.00    
  16    69.49       69.48       69.48       69.46       69.44       69.42       69.39       69.36       69.32       69.28    
        69.23       69.17       69.10       69.03       68.95       68.86       68.77       68.69       68.65       68.66    
        68.72       68.79       68.85       68.92       68.97       69.03       69.07       69.11       69.15       69.18    
        69.21       69.24       69.27       69.29       69.31       69.34       69.37       69.40       69.44       69.49    
        69.54       69.59       69.64       69.69       69.75       69.80       69.85       69.90       69.95       70.00    
  17    69.49       69.49       69.48       69.47       69.45       69.43       69.40       69.36       69.32       69.28    
        69.22       69.16       69.09       69.00       68.90       68.79       68.66       68.54       68.46       68.51    
        68.62       68.72       68.81       68.89       68.95       69.01       69.06       69.10       69.14       69.18    
        69.20       69.23       69.25       69.27       69.29       69.31       69.34       69.37       69.41       69.46    
        69.52       69.57       69.63       69.68       69.74       69.79       69.85       69.90       69.95       70.00    
  18    69.50       69.50       69.49       69.47       69.46       69.43       69.40       69.37       69.33       69.28    
        69.22       69.16       69.08       68.98       68.87       68.73       68.56       68.34       68.12       68.32    
        68.51       68.66       68.78       68.87       68.94       69.00       69.06       69.10       69.14       69.17    
        69.20       69.22       69.24       69.26       69.27       69.28       69.30       69.33       69.37       69.43    
        69.49       69.56       69.62       69.68       69.73       69.79       69.84       69.90       69.95       70.00    
  19    69.51       69.51       69.50       69.48       69.46       69.44       69.41       69.38       69.33       69.29    
        69.23       69.16       69.08       68.98       68.87       68.71       68.50       68.14       67.37       68.12    
        68.45       68.64       68.77       68.87       68.94       69.01       69.06       69.10       69.14       69.17    
        69.20       69.22       69.24       69.25       69.25       69.25       69.25       69.26       69.32       69.40    
        69.47       69.54       69.61       69.67       69.73       69.79       69.84       69.89       69.95       70.00    
  20    69.52       69.52       69.51       69.49       69.48       69.45       69.42       69.39       69.35       69.30    
        69.24       69.17       69.10       69.00       68.89       68.75       68.58       68.36       68.14       68.33    
        68.53       68.68       68.79       68.88       68.96       69.02       69.07       69.11       69.15       69.18    
        69.20       69.22       69.24       69.24       69.24       69.22       69.18       69.15       69.26       69.36    
        69.45       69.53       69.60       69.67       69.73       69.79       69.84       69.89       69.95       70.00    
  21    69.53       69.53       69.52       69.51       69.49       69.47       69.44       69.40       69.36       69.32    
        69.26       69.20       69.12       69.04       68.94       68.83       68.70       68.57       68.49       68.55    
        68.65       68.75       68.84       68.92       68.98       69.04       69.09       69.13       69.16       69.19    
        69.22       69.23       69.24       69.25       69.24       69.20       69.12       68.90       69.19       69.35    
        69.45       69.53       69.60       69.67       69.73       69.79       69.84       69.90       69.95       70.00    
  22    69.55       69.54       69.54       69.52       69.50       69.48       69.45       69.42       69.38       69.34    
        69.29       69.23       69.16       69.09       69.00       68.91       68.82       68.74       68.70       68.72    
        68.77       68.84       68.90       68.96       69.02       69.07       69.11       69.15       69.18       69.21    
        69.23       69.25       69.26       69.26       69.26       69.24       69.20       69.16       69.27       69.38    
        69.47       69.54       69.61       69.67       69.73       69.79       69.84       69.90       69.95       70.00    
  23    69.56       69.56       69.55       69.54       69.52       69.50       69.47       69.44       69.41       69.36    
        69.32       69.26       69.20       69.14       69.07       69.00       68.93       68.88       68.85       68.85    
        68.88       68.92       68.97       69.02       69.06       69.10       69.14       69.18       69.21       69.23    
        69.25       69.27       69.28       69.29       69.29       69.29       69.28       69.29       69.35       69.42    
        69.49       69.56       69.62       69.68       69.74       69.79       69.85       69.90       69.95       70.00    
  24    69.58       69.58       69.57       69.56       69.54       69.52       69.49       69.47       69.43       69.39    
        69.35       69.30       69.25       69.19       69.13       69.08       69.02       68.98       68.96       68.96    
        68.97       69.00       69.03       69.07       69.11       69.14       69.18       69.21       69.23       69.26    
        69.28       69.30       69.31       69.32       69.33       69.34       69.35       69.37       69.41       69.47    
        69.53       69.58       69.64       69.70       69.75       69.80       69.85       69.90       69.95       70.00    
  25    69.60       69.59       69.59       69.58       69.56       69.54       69.52       69.49       69.46       69.42    
        69.38       69.34       69.30       69.25       69.20       69.15       69.11       69.07       69.05       69.05    
        69.06       69.07       69.10       69.12       69.15       69.18       69.21       69.24       69.27       69.29    
        69.31       69.33       69.34       69.36       69.37       69.38       69.40       69.43       69.47       69.51    
        69.56       69.61       69.66       69.71       69.76       69.81       69.86       69.91       69.95       70.00    
  26    69.62       69.61       69.61       69.60       69.58       69.56       69.54       69.52       69.49       69.46    
        69.42       69.38       69.34       69.30       69.26       69.21       69.18       69.15       69.13       69.13    
        69.13       69.14       69.16       69.18       69.20       69.23       69.25       69.28       69.30       69.32    
        69.34       69.36       69.38       69.39       69.41       69.43       69.45       69.48       69.51       69.55    
        69.59       69.63       69.68       69.72       69.77       69.82       69.86       69.91       69.95       70.00    
  27    69.64       69.63       69.63       69.62       69.60       69.59       69.57       69.54       69.52       69.49    
        69.46       69.42       69.38       69.35       69.31       69.27       69.24       69.22       69.20       69.19    
        69.19       69.20       69.21       69.23       69.25       69.27       69.29       69.31       69.33       69.35    
        69.37       69.39       69.40       69.42       69.44       69.46       69.48       69.51       69.54       69.58    
        69.61       69.65       69.70       69.74       69.78       69.83       69.87       69.91       69.96       70.00    
  28    69.66       69.65       69.65       69.64       69.63       69.61       69.59       69.57       69.55       69.52    
        69.49       69.46       69.43       69.39       69.36       69.33       69.30       69.28       69.26       69.25    
        69.25       69.25       69.26       69.27       69.29       69.30       69.32       69.34       69.36       69.38    
        69.39       69.41       69.43       69.45       69.47       69.49       69.51       69.54       69.57       69.60    
        69.64       69.67       69.71       69.75       69.79       69.83       69.88       69.92       69.96       70.00    
  29    69.68       69.67       69.67       69.66       69.65       69.63       69.62       69.60       69.58       69.55    
        69.52       69.50       69.47       69.44       69.41       69.38       69.35       69.33       69.32       69.31    
        69.30       69.30       69.31       69.32       69.33       69.34       69.36       69.37       69.39       69.40    
        69.42       69.44       69.46       69.48       69.50       69.52       69.54       69.57       69.60       69.63    
        69.66       69.69       69.73       69.77       69.80       69.84       69.88       69.92       69.96       70.00    
  30    69.70       69.70       69.69       69.68       69.67       69.66       69.64       69.62       69.60       69.58    
        69.56       69.53       69.50       69.48       69.45       69.42       69.40       69.38       69.37       69.36    
        69.35       69.35       69.35       69.36       69.37       69.38       69.39       69.40       69.42       69.43    
        69.45       69.47       69.48       69.50       69.52       69.54       69.57       69.59       69.62       69.65    
        69.68       69.71       69.74       69.78       69.82       69.85       69.89       69.93       69.96       70.00    
  31    69.72       69.72       69.71       69.70       69.69       69.68       69.67       69.65       69.63       69.61    
        69.59       69.56       69.54       69.51       69.49       69.46       69.44       69.42       69.41       69.40    
        69.39       69.39       69.39       69.39       69.40       69.41       69.42       69.43       69.45       69.46    
        69.47       69.49       69.51       69.53       69.55       69.57       69.59       69.61       69.64       69.67    
        69.70       69.73       69.76       69.79       69.82       69.86       69.89       69.93       69.96       70.00    
  32    69.74       69.74       69.73       69.72       69.72       69.70       69.69       69.67       69.66       69.64    
        69.62       69.60       69.57       69.55       69.53       69.50       69.48       69.46       69.45       69.44    
        69.43       69.43       69.43       69.43       69.43       69.44       69.45       69.46       69.47       69.49    
        69.50       69.51       69.53       69.55       69.57       69.59       69.61       69.63       69.66       69.68    
        69.71       69.74       69.77       69.80       69.83       69.87       69.90       69.93       69.97       70.00    
  33    69.76       69.76       69.75       69.74       69.74       69.73       69.71       69.70       69.68       69.66    
        69.65       69.63       69.60       69.58       69.56       69.54       69.52       69.50       69.49       69.48    
        69.47       69.46       69.46       69.46       69.47       69.47       69.48       69.49       69.50       69.51    
        69.52       69.54       69.55       69.57       69.59       69.61       69.63       69.65       69.67       69.70    
        69.73       69.75       69.78       69.81       69.84       69.87       69.90       69.94       69.97       70.00    
  34    69.78       69.77       69.77       69.76       69.76       69.75       69.73       69.72       69.71       69.69    
        69.67       69.65       69.63       69.61       69.59       69.57       69.55       69.53       69.52       69.51    
        69.50       69.50       69.49       69.49       69.50       69.50       69.51       69.51       69.52       69.53    
        69.55       69.56       69.57       69.59       69.61       69.63       69.65       69.67       69.69       69.71    
        69.74       69.77       69.79       69.82       69.85       69.88       69.91       69.94       69.97       70.00    
  35    69.79       69.79       69.79       69.78       69.78       69.77       69.76       69.74       69.73       69.71    
        69.70       69.68       69.66       69.64       69.62       69.60       69.58       69.56       69.55       69.54    
        69.53       69.53       69.52       69.52       69.52       69.53       69.53       69.54       69.55       69.56    
        69.57       69.58       69.59       69.61       69.63       69.64       69.66       69.68       69.71       69.73    
        69.75       69.78       69.80       69.83       69.86       69.89       69.91       69.94       69.97       70.00    
  36    69.81       69.81       69.81       69.80       69.79       69.79       69.78       69.76       69.75       69.74    
        69.72       69.70       69.68       69.67       69.65       69.63       69.61       69.59       69.58       69.57    
        69.56       69.55       69.55       69.55       69.55       69.55       69.55       69.56       69.57       69.58    
        69.59       69.60       69.61       69.63       69.64       69.66       69.68       69.70       69.72       69.74    
        69.76       69.79       69.81       69.84       69.86       69.89       69.92       69.94       69.97       70.00    
  37    69.83       69.82       69.82       69.82       69.81       69.80       69.79       69.78       69.77       69.76    
        69.74       69.72       69.71       69.69       69.67       69.65       69.63       69.62       69.60       69.59    
        69.58       69.58       69.57       69.57       69.57       69.57       69.58       69.58       69.59       69.60    
        69.61       69.62       69.63       69.64       69.66       69.68       69.69       69.71       69.73       69.75    
        69.77       69.80       69.82       69.84       69.87       69.90       69.92       69.95       69.97       70.00    
  38    69.84       69.84       69.84       69.83       69.83       69.82       69.81       69.80       69.79       69.77    
        69.76       69.74       69.73       69.71       69.69       69.67       69.65       69.64       69.63       69.62    
        69.61       69.60       69.60       69.59       69.59       69.59       69.60       69.60       69.61       69.61    
        69.62       69.63       69.65       69.66       69.67       69.69       69.71       69.72       69.74       69.76    
        69.78       69.81       69.83       69.85       69.88       69.90       69.92       69.95       69.97       70.00    
  39    69.85       69.85       69.85       69.85       69.84       69.83       69.83       69.82       69.80       69.79    
        69.78       69.76       69.75       69.73       69.71       69.69       69.68       69.66       69.65       69.64    
        69.63       69.62       69.62       69.61       69.61       69.61       69.61       69.62       69.62       69.63    
        69.64       69.65       69.66       69.67       69.69       69.70       69.72       69.74       69.75       69.77    
        69.79       69.81       69.84       69.86       69.88       69.90       69.93       69.95       69.98       70.00    
  40    69.86       69.86       69.86       69.86       69.85       69.85       69.84       69.83       69.82       69.81    
        69.79       69.78       69.76       69.75       69.73       69.71       69.69       69.68       69.67       69.66    
        69.65       69.64       69.63       69.63       69.63       69.63       69.63       69.63       69.64       69.65    
        69.65       69.66       69.67       69.69       69.70       69.71       69.73       69.75       69.76       69.78    
        69.80       69.82       69.84       69.86       69.89       69.91       69.93       69.95       69.98       70.00    
  41    69.88       69.87       69.87       69.87       69.87       69.86       69.85       69.84       69.83       69.82    
        69.81       69.79       69.78       69.76       69.75       69.73       69.71       69.70       69.68       69.67    
        69.66       69.66       69.65       69.65       69.64       69.64       69.65       69.65       69.65       69.66    
        69.67       69.68       69.69       69.70       69.71       69.72       69.74       69.75       69.77       69.79    
        69.81       69.83       69.85       69.87       69.89       69.91       69.93       69.96       69.98       70.00    
  42    69.89       69.89       69.88       69.88       69.88       69.87       69.86       69.85       69.85       69.83    
        69.82       69.81       69.79       69.78       69.76       69.74       69.73       69.71       69.70       69.69    
        69.68       69.67       69.66       69.66       69.66       69.66       69.66       69.66       69.67       69.67    
        69.68       69.69       69.70       69.71       69.72       69.73       69.75       69.76       69.78       69.80    
        69.81       69.83       69.85       69.87       69.89       69.91       69.93       69.96       69.98       70.00    
  43  -1000.0       69.90       69.90       69.89       69.88       69.88       69.87       69.86       69.86       69.84    
        69.83       69.82       69.81       69.79       69.77       69.75       69.74       69.72       69.71       69.70    
        69.69       69.68       69.68       69.67       69.67       69.67       69.67       69.67       69.68       69.68    
        69.69       69.70       69.71       69.72       69.73       69.74       69.76       69.77       69.79       69.80    
        69.82       69.84       69.86       69.88       69.90       69.92       69.94       69.96       69.98       70.00    
  44  -1000.0     -1000.0       69.91       69.90       69.89       69.89       69.88       69.87       69.86       69.85    
        69.84       69.83       69.82       69.80       69.78       69.77       69.75       69.74       69.72       69.71    
        69.70       69.69       69.69       69.68       69.68       69.68       69.68       69.68       69.69       69.69    
        69.70       69.71       69.71       69.72       69.74       69.75       69.76       69.78       69.79       69.81    
        69.82       69.84       69.86       69.88       69.90       69.92       69.94       69.96       69.98       70.00    
  45  -1000.0     -1000.0     -1000.0       69.91       69.91       69.89       69.89       69.88       69.87       69.86    
        69.85       69.84       69.82       69.81       69.79       69.77       69.76       69.74       69.73       69.72    
        69.71       69.70       69.70       69.69       69.69       69.69       69.69       69.69       69.70       69.70    
        69.71       69.71       69.72       69.73       69.74       69.75       69.77       69.78       69.80       69.81    
        69.83       69.85       69.86       69.88       69.90       69.92       69.94       69.96       69.98       70.00    
  46  -1000.0     -1000.0     -1000.0     -1000.0       69.91       69.91       69.89       69.89       69.88       69.87    
        69.86       69.84       69.83       69.82       69.80       69.78       69.77       69.75       69.74       69.73    
        69.72       69.71       69.71       69.70       69.70       69.70       69.70       69.70       69.70       69.71    
        69.71       69.72       69.73       69.74       69.75       69.76       69.77       69.79       69.80       69.82    
        69.83       69.85       69.87       69.88       69.90       69.92       69.94       69.96       69.98       70.00    
  47  -1000.0     -1000.0     -1000.0     -1000.0     -1000.0       69.91       69.90       69.89       69.88       69.87    
        69.86       69.85       69.84       69.82       69.81       69.79       69.77       69.76       69.75       69.74    
        69.73       69.72       69.71       69.71       69.70       69.70       69.70       69.70       69.71       69.71    
        69.72       69.72       69.73       69.74       69.75       69.76       69.78       69.79       69.80       69.82    
        69.83       69.85       69.87       69.89       69.90       69.92       69.94       69.96       69.98       70.00    
  48  -1000.0     -1000.0     -1000.0     -1000.0     -1000.0     -1000.0       69.91       69.90       69.88       69.88    
        69.87       69.85       69.84       69.83       69.81       69.79       69.78       69.76       69.75       69.74    
        69.73       69.72       69.72       69.71       69.71       69.71       69.71       69.71       69.71       69.72    
        69.72       69.73       69.74       69.74       69.76       69.77       69.78       69.79       69.81       69.82    
        69.84       69.85       69.87       69.89       69.91       69.92       69.94       69.96       69.98       70.00    
  49  -1000.0     -1000.0     -1000.0     -1000.0     -1000.0     -1000.0     -1000.0       69.90       69.89       69.88    
        69.87       69.86       69.84       69.83       69.81       69.80       69.78       69.77       69.75       69.74    
        69.73       69.73       69.72       69.72       69.71       69.71       69.71       69.71       69.71       69.72    
        69.72       69.73       69.74       69.75       69.76       69.77       69.78       69.79       69.81       69.82    
        69.84       69.85       69.87       69.89       69.91       69.92       69.94       69.96       69.98       70.00    
  50  -1000.0     -1000.0     -1000.0     -1000.0     -1000.0     -1000.0     -1000.0     -1000.0       69.90       69.88    
        69.87       69.86       69.84       69.83       69.81       69.80       69.78       69.77       69.76       69.74    
        69.74       69.73       69.72       69.72       69.71       69.71       69.71       69.71       69.72       69.72    
        69.72       69.73       69.74       69.75       69.76       69.77       69.78       69.79       69.81       69.82    
        69.84       69.86       69.87       69.89       69.91       69.93       69.94       69.96       69.98       70.00    
1
              HEAD IN LAYER   3 AT END OF TIME STEP   1 IN STRESS PERIOD    1
  ---------------------------------------------------------------------------

            1           2           3           4           5           6           7           8           9          10
           11          12          13          14          15          16          17          18          19          20
           21          22          23          24          25          26          27          28          29          30
           31          32          33          34          35          36          37          38          39          40
           41          42          43          44          45          46          47          48          49          50
 ........................................................................................................................
   1  -1000.0     -1000.0     -1000.0     -1000.0     -1000.0     -1000.0     -1000.0     -1000.0     -1000.0     -1000.0    
        69.37       69.36       69.34       69.33       69.31       69.29       69.28       69.27       69.26       69.25    
        69.25       69.25       69.25       69.26       69.27       69.28       69.29       69.31       69.32       69.34    
        69.37       69.39       69.41       69.44       69.47       69.50       69.53       69.56       69.59       69.63    
        69.66       69.70       69.73       69.77       69.81       69.84       69.88       69.92       69.96       70.00    
   2  -1000.0     -1000.0     -1000.0     -1000.0     -1000.0     -1000.0     -1000.0     -1000.0     -1000.0       69.39    
        69.37       69.36       69.34       69.33       69.31       69.29       69.28       69.26       69.25       69.25    
        69.24       69.24       69.25       69.25       69.26       69.27       69.29       69.30       69.32       69.34    
        69.36       69.39       69.41       69.44       69.47       69.50       69.53       69.56       69.59       69.62    
        69.66       69.70       69.73       69.77       69.81       69.84       69.88       69.92       69.96       70.00    
   3  -1000.0     -1000.0     -1000.0     -1000.0     -1000.0     -1000.0     -1000.0     -1000.0       69.40       69.39    
        69.37       69.36       69.34       69.32       69.30       69.29       69.27       69.26       69.25       69.24    
        69.24       69.24       69.24       69.25       69.26       69.27       69.28       69.30       69.32       69.34    
        69.36       69.38       69.41       69.44       69.46       69.49       69.52       69.56       69.59       69.62    
        69.66       69.69       69.73       69.77       69.81       69.84       69.88       69.92       69.96       70.00    
   4  -1000.0     -1000.0     -1000.0     -1000.0     -1000.0     -1000.0     -1000.0       69.41       69.40       69.38    
        69.37       69.35       69.33       69.32       69.30       69.28       69.26       69.25       69.24       69.23    
        69.23       69.23       69.23       69.24       69.25       69.26       69.28       69.29       69.31       69.33    
        69.35       69.38       69.40       69.43       69.46       69.49       69.52       69.55       69.59       69.62    
        69.66       69.69       69.73       69.77       69.80       69.84       69.88       69.92       69.96       70.00    
   5  -1000.0     -1000.0     -1000.0     -1000.0     -1000.0     -1000.0       69.43       69.41       69.40       69.38    
        69.36       69.35       69.33       69.31       69.29       69.27       69.25       69.24       69.23       69.22    
        69.22       69.22       69.22       69.23       69.24       69.25       69.27       69.28       69.30       69.33    
        69.35       69.37       69.40       69.43       69.45       69.48       69.52       69.55       69.58       69.62    
[...]
        69.49       69.56       69.62       69.68       69.74       69.79       69.85       69.90       69.95       70.00    
  24    69.58       69.58       69.57       69.56       69.54       69.52       69.49       69.47       69.43       69.39    
        69.35       69.30       69.25       69.19       69.13       69.08       69.02       68.98       68.96       68.96    
        68.97       69.00       69.03       69.07       69.11       69.14       69.18       69.21       69.23       69.26    
        69.28       69.30       69.31       69.32       69.33       69.34       69.35       69.37       69.41       69.47    
        69.53       69.58       69.64       69.70       69.75       69.80       69.85       69.90       69.95       70.00    
  25    69.60       69.59       69.59       69.58       69.56       69.54       69.52       69.49       69.46       69.42    
        69.38       69.34       69.30       69.25       69.20       69.15       69.11       69.07       69.05       69.05    
        69.06       69.07       69.10       69.12       69.15       69.18       69.21       69.24       69.27       69.29    
        69.31       69.33       69.34       69.36       69.37       69.38       69.40       69.43       69.47       69.51    
        69.56       69.61       69.66       69.71       69.76       69.81       69.86       69.91       69.95       70.00    
  26    69.62       69.61       69.61       69.60       69.58       69.56       69.54       69.52       69.49       69.46    
        69.42       69.38       69.34       69.30       69.26       69.21       69.18       69.15       69.13       69.13    
        69.13       69.14       69.16       69.18       69.20       69.23       69.25       69.28       69.30       69.32    
        69.34       69.36       69.38       69.39       69.41       69.43       69.45       69.48       69.51       69.55    
        69.59       69.63       69.68       69.72       69.77       69.82       69.86       69.91       69.95       70.00    
  27    69.64       69.63       69.63       69.62       69.60       69.59       69.57       69.54       69.52       69.49    
        69.46       69.42       69.38       69.35       69.31       69.27       69.24       69.22       69.20       69.19    
        69.19       69.20       69.21       69.23       69.25       69.27       69.29       69.31       69.33       69.35    
        69.37       69.39       69.40       69.42       69.44       69.46       69.48       69.51       69.54       69.58    
        69.61       69.65       69.70       69.74       69.78       69.83       69.87       69.91       69.96       70.00    
  28    69.66       69.65       69.65       69.64       69.63       69.61       69.59       69.57       69.55       69.52    
        69.49       69.46       69.43       69.39       69.36       69.33       69.30       69.28       69.26       69.25    
        69.25       69.25       69.26       69.27       69.29       69.30       69.32       69.34       69.36       69.38    
        69.39       69.41       69.43       69.45       69.47       69.49       69.51       69.54       69.57       69.60    
        69.64       69.67       69.71       69.75       69.79       69.83       69.88       69.92       69.96       70.00    
  29    69.68       69.67       69.67       69.66       69.65       69.63       69.62       69.60       69.58       69.55    
        69.52       69.50       69.47       69.44       69.41       69.38       69.35       69.33       69.32       69.31    
        69.30       69.30       69.31       69.32       69.33       69.34       69.36       69.37       69.39       69.40    
        69.42       69.44       69.46       69.48       69.50       69.52       69.54       69.57       69.60       69.63    
        69.66       69.69       69.73       69.77       69.80       69.84       69.88       69.92       69.96       70.00    
  30    69.70       69.70       69.69       69.68       69.67       69.66       69.64       69.62       69.60       69.58    
        69.56       69.53       69.50       69.48       69.45       69.42       69.40       69.38       69.37       69.36    
        69.35       69.35       69.35       69.36       69.37       69.38       69.39       69.40       69.42       69.43    
        69.45       69.47       69.48       69.50       69.52       69.54       69.57       69.59       69.62       69.65    
        69.68       69.71       69.74       69.78       69.82       69.85       69.89       69.93       69.96       70.00    
  31    69.72       69.72       69.71       69.70       69.69       69.68       69.67       69.65       69.63       69.61    
        69.59       69.56       69.54       69.51       69.49       69.46       69.44       69.42       69.41       69.40    
        69.39       69.39       69.39       69.39       69.40       69.41       69.42       69.43       69.45       69.46    
        69.47       69.49       69.51       69.53       69.55       69.57       69.59       69.61       69.64       69.67    
        69.70       69.73       69.76       69.79       69.82       69.86       69.89       69.93       69.96       70.00    
  32    69.74       69.74       69.73       69.72       69.72       69.70       69.69       69.67       69.66       69.64    
        69.62       69.60       69.57       69.55       69.53       69.50       69.48       69.46       69.45       69.44    
        69.43       69.43       69.43       69.43       69.43       69.44       69.45       69.46       69.47       69.49    
        69.50       69.51       69.53       69.55       69.57       69.59       69.61       69.63       69.66       69.68    
        69.71       69.74       69.77       69.80       69.83       69.87       69.90       69.93       69.97       70.00    
  33    69.76       69.76       69.75       69.74       69.74       69.73       69.71       69.70       69.68       69.66    
        69.65       69.63       69.60       69.58       69.56       69.54       69.52       69.50       69.49       69.48    
        69.47       69.46       69.46       69.46       69.47       69.47       69.48       69.49       69.50       69.51    
        69.52       69.54       69.55       69.57       69.59       69.61       69.63       69.65       69.67       69.70    
        69.73       69.75       69.78       69.81       69.84       69.87       69.90       69.94       69.97       70.00    
  34    69.78       69.77       69.77       69.76       69.76       69.75       69.73       69.72       69.71       69.69    
        69.67       69.65       69.63       69.61       69.59       69.57       69.55       69.53       69.52       69.51    
        69.50       69.50       69.49       69.49       69.50       69.50       69.51       69.51       69.52       69.53    
        69.55       69.56       69.57       69.59       69.61       69.63       69.65       69.67       69.69       69.71    
        69.74       69.77       69.79       69.82       69.85       69.88       69.91       69.94       69.97       70.00    
  35    69.79       69.79       69.79       69.78       69.78       69.77       69.76       69.74       69.73       69.71    
        69.70       69.68       69.66       69.64       69.62       69.60       69.58       69.56       69.55       69.54    
        69.53       69.53       69.52       69.52       69.52       69.53       69.53       69.54       69.55       69.56    
        69.57       69.58       69.59       69.61       69.63       69.64       69.66       69.68       69.71       69.73    
        69.75       69.78       69.80       69.83       69.86       69.89       69.91       69.94       69.97       70.00    
  36    69.81       69.81       69.81       69.80       69.79       69.79       69.78       69.76       69.75       69.74    
        69.72       69.70       69.68       69.67       69.65       69.63       69.61       69.59       69.58       69.57    
        69.56       69.55       69.55       69.55       69.55       69.55       69.55       69.56       69.57       69.58    
        69.59       69.60       69.61       69.63       69.64       69.66       69.68       69.70       69.72       69.74    
        69.76       69.79       69.81       69.84       69.86       69.89       69.92       69.94       69.97       70.00    
  37    69.83       69.82       69.82       69.82       69.81       69.80       69.79       69.78       69.77       69.76    
        69.74       69.72       69.71       69.69       69.67       69.65       69.63       69.62       69.60       69.59    
        69.58       69.58       69.57       69.57       69.57       69.57       69.58       69.58       69.59       69.60    
        69.61       69.62       69.63       69.64       69.66       69.68       69.69       69.71       69.73       69.75    
        69.77       69.80       69.82       69.84       69.87       69.90       69.92       69.95       69.97       70.00    
  38    69.84       69.84       69.84       69.83       69.83       69.82       69.81       69.80       69.79       69.77    
        69.76       69.74       69.73       69.71       69.69       69.67       69.65       69.64       69.63       69.62    
        69.61       69.60       69.60       69.59       69.59       69.59       69.60       69.60       69.61       69.61    
        69.62       69.63       69.65       69.66       69.67       69.69       69.71       69.72       69.74       69.76    
        69.78       69.81       69.83       69.85       69.88       69.90       69.92       69.95       69.97       70.00    
  39    69.85       69.85       69.85       69.85       69.84       69.83       69.83       69.82       69.80       69.79    
        69.78       69.76       69.75       69.73       69.71       69.69       69.68       69.66       69.65       69.64    
        69.63       69.62       69.62       69.61       69.61       69.61       69.61       69.62       69.62       69.63    
        69.64       69.65       69.66       69.67       69.69       69.70       69.72       69.74       69.75       69.77    
        69.79       69.81       69.84       69.86       69.88       69.90       69.93       69.95       69.98       70.00    
  40    69.86       69.86       69.86       69.86       69.85       69.85       69.84       69.83       69.82       69.81    
        69.79       69.78       69.76       69.75       69.73       69.71       69.69       69.68       69.67       69.66    
        69.65       69.64       69.63       69.63       69.63       69.63       69.63       69.63       69.64       69.65    
        69.65       69.66       69.67       69.69       69.70       69.71       69.73       69.75       69.76       69.78    
        69.80       69.82       69.84       69.86       69.89       69.91       69.93       69.95       69.98       70.00    
  41  -1000.0       69.87       69.87       69.87       69.87       69.86       69.85       69.84       69.83       69.82    
        69.81       69.79       69.78       69.76       69.75       69.73       69.71       69.70       69.68       69.67    
        69.66       69.66       69.65       69.65       69.64       69.64       69.65       69.65       69.65       69.66    
        69.67       69.68       69.69       69.70       69.71       69.72       69.74       69.75       69.77       69.79    
        69.81       69.83       69.85       69.87       69.89       69.91       69.93       69.96       69.98       70.00    
  42  -1000.0     -1000.0       69.88       69.88       69.88       69.87       69.86       69.85       69.85       69.83    
        69.82       69.81       69.79       69.78       69.76       69.74       69.73       69.71       69.70       69.69    
        69.68       69.67       69.66       69.66       69.66       69.66       69.66       69.66       69.67       69.67    
        69.68       69.69       69.70       69.71       69.72       69.73       69.75       69.76       69.78       69.80    
        69.81       69.83       69.85       69.87       69.89       69.91       69.93       69.96       69.98       70.00    
  43  -1000.0     -1000.0     -1000.0       69.89       69.88       69.88       69.87       69.86       69.86       69.84    
        69.83       69.82       69.81       69.79       69.77       69.75       69.74       69.72       69.71       69.70    
        69.69       69.68       69.68       69.67       69.67       69.67       69.67       69.67       69.68       69.68    
        69.69       69.70       69.71       69.72       69.73       69.74       69.76       69.77       69.79       69.80    
        69.82       69.84       69.86       69.88       69.90       69.92       69.94       69.96       69.98       70.00    
  44  -1000.0     -1000.0     -1000.0     -1000.0       69.89       69.89       69.88       69.87       69.86       69.85    
        69.84       69.83       69.82       69.80       69.78       69.77       69.75       69.74       69.72       69.71    
        69.70       69.69       69.69       69.68       69.68       69.68       69.68       69.68       69.69       69.69    
        69.70       69.71       69.71       69.72       69.74       69.75       69.76       69.78       69.79       69.81    
        69.82       69.84       69.86       69.88       69.90       69.92       69.94       69.96       69.98       70.00    
  45  -1000.0     -1000.0     -1000.0     -1000.0     -1000.0       69.89       69.89       69.88       69.87       69.86    
        69.85       69.84       69.82       69.81       69.79       69.77       69.76       69.74       69.73       69.72    
        69.71       69.70       69.70       69.69       69.69       69.69       69.69       69.69       69.70       69.70    
        69.71       69.71       69.72       69.73       69.74       69.75       69.77       69.78       69.80       69.81    
        69.83       69.85       69.86       69.88       69.90       69.92       69.94       69.96       69.98       70.00    
  46  -1000.0     -1000.0     -1000.0     -1000.0     -1000.0     -1000.0       69.89       69.89       69.88       69.87    
        69.86       69.84       69.83       69.82       69.80       69.78       69.77       69.75       69.74       69.73    
        69.72       69.71       69.71       69.70       69.70       69.70       69.70       69.70       69.70       69.71    
        69.71       69.72       69.73       69.74       69.75       69.76       69.77       69.79       69.80       69.82    
        69.83       69.85       69.87       69.88       69.90       69.92       69.94       69.96       69.98       70.00    
  47  -1000.0     -1000.0     -1000.0     -1000.0     -1000.0     -1000.0     -1000.0       69.89       69.88       69.87    
        69.86       69.85       69.84       69.82       69.81       69.79       69.77       69.76       69.75       69.74    
        69.73       69.72       69.71       69.71       69.70       69.70       69.70       69.70       69.71       69.71    
        69.72       69.72       69.73       69.74       69.75       69.76       69.78       69.79       69.80       69.82    
        69.83       69.85       69.87       69.89       69.90       69.92       69.94       69.96       69.98       70.00    
  48  -1000.0     -1000.0     -1000.0     -1000.0     -1000.0     -1000.0     -1000.0     -1000.0       69.88       69.88    
        69.87       69.85       69.84       69.83       69.81       69.79       69.78       69.76       69.75       69.74    
        69.73       69.72       69.72       69.71       69.71       69.71       69.71       69.71       69.71       69.72    
        69.72       69.73       69.74       69.74       69.76       69.77       69.78       69.79       69.81       69.82    
        69.84       69.85       69.87       69.89       69.91       69.92       69.94       69.96       69.98       70.00    
  49  -1000.0     -1000.0     -1000.0     -1000.0     -1000.0     -1000.0     -1000.0     -1000.0     -1000.0       69.88    
        69.87       69.86       69.84       69.83       69.81       69.80       69.78       69.77       69.75       69.74    
        69.73       69.73       69.72       69.72       69.71       69.71       69.71       69.71       69.71       69.72    
        69.72       69.73       69.74       69.75       69.76       69.77       69.78       69.79       69.81       69.82    
        69.84       69.85       69.87       69.89       69.91       69.92       69.94       69.96       69.98       70.00    
  50  -1000.0     -1000.0     -1000.0     -1000.0     -1000.0     -1000.0     -1000.0     -1000.0     -1000.0     -1000.0    
        69.87       69.86       69.84       69.83       69.81       69.80       69.78       69.77       69.76       69.74    
        69.74       69.73       69.72       69.72       69.71       69.71       69.71       69.71       69.72       69.72    
        69.72       69.73       69.74       69.75       69.76       69.77       69.78       69.79       69.81       69.82    
        69.84       69.86       69.87       69.89       69.91       69.93       69.94       69.96       69.98       70.00    

 HEAD WILL BE SAVED ON UNIT   51 AT END OF TIME STEP    1, STRESS PERIOD    1

 DRAWDOWN WILL BE SAVED ON UNIT   52 AT END OF TIME STEP    1, STRESS PERIOD    1
1
  VOLUMETRIC BUDGET FOR ENTIRE MODEL AT END OF TIME STEP    1, STRESS PERIOD   1
  ------------------------------------------------------------------------------

     CUMULATIVE VOLUMES      L**3       RATES FOR THIS TIME STEP      L**3/T
     ------------------                 ------------------------

           IN:                                      IN:
           ---                                      ---
             STORAGE =           0.0000               STORAGE =           0.0000
       CONSTANT HEAD =      581755.9375         CONSTANT HEAD =        3231.9773
               WELLS =           0.0000                 WELLS =           0.0000
                  ET =           0.0000                    ET =           0.0000
            RECHARGE =      637200.0000              RECHARGE =        3540.0000
      STREAM LEAKAGE =       32580.0000        STREAM LEAKAGE =         181.0000

            TOTAL IN =     1251536.0000              TOTAL IN =        6952.9775

          OUT:                                     OUT:
          ----                                     ----
             STORAGE =           0.0000               STORAGE =           0.0000
       CONSTANT HEAD =           0.0000         CONSTANT HEAD =           0.0000
               WELLS =     1251536.0000                 WELLS =        6952.9775
                  ET =           0.0000                    ET =           0.0000
            RECHARGE =           0.0000              RECHARGE =           0.0000
      STREAM LEAKAGE =           0.0000        STREAM LEAKAGE =           0.0000

           TOTAL OUT =     1251536.0000             TOTAL OUT =        6952.9775

            IN - OUT =           0.0000              IN - OUT =           0.0000

 PERCENT DISCREPANCY =           0.00     PERCENT DISCREPANCY =           0.00






         TIME SUMMARY AT END OF TIME STEP    1 IN STRESS PERIOD    1
                    SECONDS     MINUTES      HOURS       DAYS        YEARS
                    -----------------------------------------------------------
   TIME STEP LENGTH 1.55520E+07 2.59200E+05  4320.0      180.00     0.49281    
 STRESS PERIOD TIME 1.55520E+07 2.59200E+05  4320.0      180.00     0.49281    
         TOTAL TIME 1.55520E+07 2.59200E+05  4320.0      180.00     0.49281    
1

 Run end date and time (yyyy/mm/dd hh:mm:ss): 2023/07/12 18:02:40
 Elapsed run time:  0.184 Seconds

